*SPEF "ieee 1481-1999"
*DESIGN "user_module_363170940975709185"
*DATE "11:11:11 Fri 11 11, 1111"
*VENDOR "OpenRCX"
*PROGRAM "Parallel Extraction"
*VERSION "1.0"
*DESIGN_FLOW "NAME_SCOPE LOCAL" "PIN_CAP NONE"
*DIVIDER /
*DELIMITER :
*BUS_DELIMITER []
*T_UNIT 1 NS
*C_UNIT 1 PF
*R_UNIT 1 OHM
*L_UNIT 1 HENRY

*NAME_MAP
*1 io_in[0]
*2 io_in[1]
*3 io_in[2]
*4 io_in[3]
*5 io_in[4]
*6 io_in[5]
*7 io_in[6]
*8 io_in[7]
*9 io_out[0]
*10 net8
*11 net2
*12 net3
*13 net4
*14 net5
*15 net6
*16 net7
*19 and1\.out
*20 net1
*21 FILLER_0_109
*22 FILLER_0_113
*23 FILLER_0_125
*24 FILLER_0_137
*25 FILLER_0_141
*26 FILLER_0_15
*27 FILLER_0_153
*28 FILLER_0_165
*29 FILLER_0_169
*30 FILLER_0_181
*31 FILLER_0_193
*32 FILLER_0_197
*33 FILLER_0_209
*34 FILLER_0_221
*35 FILLER_0_225
*36 FILLER_0_237
*37 FILLER_0_249
*38 FILLER_0_253
*39 FILLER_0_265
*40 FILLER_0_27
*41 FILLER_0_277
*42 FILLER_0_281
*43 FILLER_0_29
*44 FILLER_0_293
*45 FILLER_0_3
*46 FILLER_0_41
*47 FILLER_0_53
*48 FILLER_0_57
*49 FILLER_0_69
*50 FILLER_0_81
*51 FILLER_0_85
*52 FILLER_0_97
*53 FILLER_10_109
*54 FILLER_10_121
*55 FILLER_10_133
*56 FILLER_10_139
*57 FILLER_10_141
*58 FILLER_10_15
*59 FILLER_10_153
*60 FILLER_10_165
*61 FILLER_10_177
*62 FILLER_10_189
*63 FILLER_10_195
*64 FILLER_10_197
*65 FILLER_10_209
*66 FILLER_10_221
*67 FILLER_10_233
*68 FILLER_10_245
*69 FILLER_10_251
*70 FILLER_10_253
*71 FILLER_10_265
*72 FILLER_10_27
*73 FILLER_10_277
*74 FILLER_10_289
*75 FILLER_10_29
*76 FILLER_10_297
*77 FILLER_10_3
*78 FILLER_10_41
*79 FILLER_10_53
*80 FILLER_10_65
*81 FILLER_10_77
*82 FILLER_10_83
*83 FILLER_10_85
*84 FILLER_10_97
*85 FILLER_11_105
*86 FILLER_11_111
*87 FILLER_11_113
*88 FILLER_11_125
*89 FILLER_11_137
*90 FILLER_11_149
*91 FILLER_11_15
*92 FILLER_11_161
*93 FILLER_11_167
*94 FILLER_11_169
*95 FILLER_11_181
*96 FILLER_11_193
*97 FILLER_11_205
*98 FILLER_11_217
*99 FILLER_11_223
*100 FILLER_11_225
*101 FILLER_11_237
*102 FILLER_11_249
*103 FILLER_11_261
*104 FILLER_11_27
*105 FILLER_11_273
*106 FILLER_11_279
*107 FILLER_11_281
*108 FILLER_11_293
*109 FILLER_11_3
*110 FILLER_11_39
*111 FILLER_11_51
*112 FILLER_11_55
*113 FILLER_11_57
*114 FILLER_11_69
*115 FILLER_11_81
*116 FILLER_11_93
*117 FILLER_12_109
*118 FILLER_12_121
*119 FILLER_12_133
*120 FILLER_12_139
*121 FILLER_12_141
*122 FILLER_12_15
*123 FILLER_12_153
*124 FILLER_12_165
*125 FILLER_12_177
*126 FILLER_12_189
*127 FILLER_12_195
*128 FILLER_12_197
*129 FILLER_12_209
*130 FILLER_12_221
*131 FILLER_12_233
*132 FILLER_12_245
*133 FILLER_12_251
*134 FILLER_12_253
*135 FILLER_12_265
*136 FILLER_12_27
*137 FILLER_12_277
*138 FILLER_12_289
*139 FILLER_12_29
*140 FILLER_12_297
*141 FILLER_12_3
*142 FILLER_12_41
*143 FILLER_12_53
*144 FILLER_12_65
*145 FILLER_12_77
*146 FILLER_12_83
*147 FILLER_12_85
*148 FILLER_12_97
*149 FILLER_13_105
*150 FILLER_13_111
*151 FILLER_13_113
*152 FILLER_13_125
*153 FILLER_13_137
*154 FILLER_13_149
*155 FILLER_13_15
*156 FILLER_13_161
*157 FILLER_13_167
*158 FILLER_13_169
*159 FILLER_13_181
*160 FILLER_13_193
*161 FILLER_13_205
*162 FILLER_13_217
*163 FILLER_13_223
*164 FILLER_13_225
*165 FILLER_13_237
*166 FILLER_13_249
*167 FILLER_13_261
*168 FILLER_13_27
*169 FILLER_13_273
*170 FILLER_13_279
*171 FILLER_13_281
*172 FILLER_13_293
*173 FILLER_13_3
*174 FILLER_13_39
*175 FILLER_13_51
*176 FILLER_13_55
*177 FILLER_13_57
*178 FILLER_13_69
*179 FILLER_13_81
*180 FILLER_13_93
*181 FILLER_14_109
*182 FILLER_14_121
*183 FILLER_14_133
*184 FILLER_14_139
*185 FILLER_14_141
*186 FILLER_14_153
*187 FILLER_14_165
*188 FILLER_14_177
*189 FILLER_14_189
*190 FILLER_14_195
*191 FILLER_14_197
*192 FILLER_14_209
*193 FILLER_14_21
*194 FILLER_14_221
*195 FILLER_14_233
*196 FILLER_14_245
*197 FILLER_14_251
*198 FILLER_14_253
*199 FILLER_14_265
*200 FILLER_14_27
*201 FILLER_14_277
*202 FILLER_14_289
*203 FILLER_14_29
*204 FILLER_14_297
*205 FILLER_14_3
*206 FILLER_14_41
*207 FILLER_14_53
*208 FILLER_14_65
*209 FILLER_14_77
*210 FILLER_14_83
*211 FILLER_14_85
*212 FILLER_14_9
*213 FILLER_14_97
*214 FILLER_15_105
*215 FILLER_15_111
*216 FILLER_15_113
*217 FILLER_15_125
*218 FILLER_15_137
*219 FILLER_15_149
*220 FILLER_15_15
*221 FILLER_15_161
*222 FILLER_15_167
*223 FILLER_15_169
*224 FILLER_15_181
*225 FILLER_15_193
*226 FILLER_15_205
*227 FILLER_15_217
*228 FILLER_15_223
*229 FILLER_15_225
*230 FILLER_15_237
*231 FILLER_15_249
*232 FILLER_15_261
*233 FILLER_15_27
*234 FILLER_15_273
*235 FILLER_15_279
*236 FILLER_15_281
*237 FILLER_15_293
*238 FILLER_15_3
*239 FILLER_15_39
*240 FILLER_15_51
*241 FILLER_15_55
*242 FILLER_15_57
*243 FILLER_15_69
*244 FILLER_15_81
*245 FILLER_15_93
*246 FILLER_16_109
*247 FILLER_16_121
*248 FILLER_16_133
*249 FILLER_16_139
*250 FILLER_16_141
*251 FILLER_16_15
*252 FILLER_16_153
*253 FILLER_16_165
*254 FILLER_16_177
*255 FILLER_16_189
*256 FILLER_16_195
*257 FILLER_16_197
*258 FILLER_16_209
*259 FILLER_16_221
*260 FILLER_16_233
*261 FILLER_16_245
*262 FILLER_16_251
*263 FILLER_16_253
*264 FILLER_16_265
*265 FILLER_16_27
*266 FILLER_16_277
*267 FILLER_16_289
*268 FILLER_16_29
*269 FILLER_16_297
*270 FILLER_16_3
*271 FILLER_16_41
*272 FILLER_16_53
*273 FILLER_16_65
*274 FILLER_16_77
*275 FILLER_16_83
*276 FILLER_16_85
*277 FILLER_16_97
*278 FILLER_17_105
*279 FILLER_17_111
*280 FILLER_17_113
*281 FILLER_17_125
*282 FILLER_17_137
*283 FILLER_17_149
*284 FILLER_17_15
*285 FILLER_17_161
*286 FILLER_17_167
*287 FILLER_17_169
*288 FILLER_17_181
*289 FILLER_17_193
*290 FILLER_17_205
*291 FILLER_17_217
*292 FILLER_17_223
*293 FILLER_17_225
*294 FILLER_17_237
*295 FILLER_17_249
*296 FILLER_17_261
*297 FILLER_17_27
*298 FILLER_17_273
*299 FILLER_17_279
*300 FILLER_17_281
*301 FILLER_17_293
*302 FILLER_17_3
*303 FILLER_17_39
*304 FILLER_17_51
*305 FILLER_17_55
*306 FILLER_17_57
*307 FILLER_17_69
*308 FILLER_17_81
*309 FILLER_17_93
*310 FILLER_18_109
*311 FILLER_18_121
*312 FILLER_18_133
*313 FILLER_18_139
*314 FILLER_18_141
*315 FILLER_18_15
*316 FILLER_18_153
*317 FILLER_18_165
*318 FILLER_18_177
*319 FILLER_18_189
*320 FILLER_18_195
*321 FILLER_18_197
*322 FILLER_18_209
*323 FILLER_18_221
*324 FILLER_18_233
*325 FILLER_18_245
*326 FILLER_18_251
*327 FILLER_18_253
*328 FILLER_18_265
*329 FILLER_18_27
*330 FILLER_18_277
*331 FILLER_18_289
*332 FILLER_18_29
*333 FILLER_18_297
*334 FILLER_18_3
*335 FILLER_18_41
*336 FILLER_18_53
*337 FILLER_18_65
*338 FILLER_18_77
*339 FILLER_18_83
*340 FILLER_18_85
*341 FILLER_18_97
*342 FILLER_19_105
*343 FILLER_19_111
*344 FILLER_19_113
*345 FILLER_19_125
*346 FILLER_19_137
*347 FILLER_19_149
*348 FILLER_19_15
*349 FILLER_19_161
*350 FILLER_19_167
*351 FILLER_19_169
*352 FILLER_19_181
*353 FILLER_19_193
*354 FILLER_19_205
*355 FILLER_19_217
*356 FILLER_19_223
*357 FILLER_19_225
*358 FILLER_19_237
*359 FILLER_19_249
*360 FILLER_19_261
*361 FILLER_19_27
*362 FILLER_19_273
*363 FILLER_19_279
*364 FILLER_19_281
*365 FILLER_19_293
*366 FILLER_19_3
*367 FILLER_19_39
*368 FILLER_19_51
*369 FILLER_19_55
*370 FILLER_19_57
*371 FILLER_19_69
*372 FILLER_19_81
*373 FILLER_19_93
*374 FILLER_1_105
*375 FILLER_1_111
*376 FILLER_1_113
*377 FILLER_1_125
*378 FILLER_1_137
*379 FILLER_1_149
*380 FILLER_1_15
*381 FILLER_1_161
*382 FILLER_1_167
*383 FILLER_1_169
*384 FILLER_1_181
*385 FILLER_1_193
*386 FILLER_1_205
*387 FILLER_1_217
*388 FILLER_1_223
*389 FILLER_1_225
*390 FILLER_1_237
*391 FILLER_1_249
*392 FILLER_1_261
*393 FILLER_1_27
*394 FILLER_1_273
*395 FILLER_1_279
*396 FILLER_1_281
*397 FILLER_1_293
*398 FILLER_1_3
*399 FILLER_1_39
*400 FILLER_1_51
*401 FILLER_1_55
*402 FILLER_1_57
*403 FILLER_1_69
*404 FILLER_1_81
*405 FILLER_1_93
*406 FILLER_20_109
*407 FILLER_20_121
*408 FILLER_20_133
*409 FILLER_20_139
*410 FILLER_20_141
*411 FILLER_20_15
*412 FILLER_20_153
*413 FILLER_20_165
*414 FILLER_20_177
*415 FILLER_20_189
*416 FILLER_20_195
*417 FILLER_20_197
*418 FILLER_20_209
*419 FILLER_20_221
*420 FILLER_20_233
*421 FILLER_20_245
*422 FILLER_20_251
*423 FILLER_20_253
*424 FILLER_20_265
*425 FILLER_20_27
*426 FILLER_20_277
*427 FILLER_20_289
*428 FILLER_20_29
*429 FILLER_20_297
*430 FILLER_20_3
*431 FILLER_20_41
*432 FILLER_20_53
*433 FILLER_20_65
*434 FILLER_20_77
*435 FILLER_20_83
*436 FILLER_20_85
*437 FILLER_20_97
*438 FILLER_21_105
*439 FILLER_21_111
*440 FILLER_21_113
*441 FILLER_21_125
*442 FILLER_21_137
*443 FILLER_21_149
*444 FILLER_21_15
*445 FILLER_21_161
*446 FILLER_21_167
*447 FILLER_21_169
*448 FILLER_21_181
*449 FILLER_21_193
*450 FILLER_21_205
*451 FILLER_21_217
*452 FILLER_21_223
*453 FILLER_21_225
*454 FILLER_21_237
*455 FILLER_21_249
*456 FILLER_21_261
*457 FILLER_21_27
*458 FILLER_21_273
*459 FILLER_21_279
*460 FILLER_21_281
*461 FILLER_21_293
*462 FILLER_21_3
*463 FILLER_21_39
*464 FILLER_21_51
*465 FILLER_21_55
*466 FILLER_21_57
*467 FILLER_21_69
*468 FILLER_21_81
*469 FILLER_21_93
*470 FILLER_22_109
*471 FILLER_22_121
*472 FILLER_22_133
*473 FILLER_22_139
*474 FILLER_22_141
*475 FILLER_22_15
*476 FILLER_22_153
*477 FILLER_22_165
*478 FILLER_22_177
*479 FILLER_22_189
*480 FILLER_22_195
*481 FILLER_22_197
*482 FILLER_22_209
*483 FILLER_22_221
*484 FILLER_22_233
*485 FILLER_22_245
*486 FILLER_22_251
*487 FILLER_22_253
*488 FILLER_22_265
*489 FILLER_22_27
*490 FILLER_22_277
*491 FILLER_22_289
*492 FILLER_22_29
*493 FILLER_22_297
*494 FILLER_22_3
*495 FILLER_22_41
*496 FILLER_22_53
*497 FILLER_22_65
*498 FILLER_22_77
*499 FILLER_22_83
*500 FILLER_22_85
*501 FILLER_22_97
*502 FILLER_23_105
*503 FILLER_23_111
*504 FILLER_23_113
*505 FILLER_23_125
*506 FILLER_23_137
*507 FILLER_23_149
*508 FILLER_23_15
*509 FILLER_23_161
*510 FILLER_23_167
*511 FILLER_23_169
*512 FILLER_23_181
*513 FILLER_23_193
*514 FILLER_23_205
*515 FILLER_23_217
*516 FILLER_23_223
*517 FILLER_23_225
*518 FILLER_23_237
*519 FILLER_23_249
*520 FILLER_23_261
*521 FILLER_23_27
*522 FILLER_23_273
*523 FILLER_23_279
*524 FILLER_23_281
*525 FILLER_23_293
*526 FILLER_23_3
*527 FILLER_23_39
*528 FILLER_23_51
*529 FILLER_23_55
*530 FILLER_23_57
*531 FILLER_23_69
*532 FILLER_23_81
*533 FILLER_23_93
*534 FILLER_24_109
*535 FILLER_24_121
*536 FILLER_24_133
*537 FILLER_24_139
*538 FILLER_24_141
*539 FILLER_24_15
*540 FILLER_24_153
*541 FILLER_24_165
*542 FILLER_24_177
*543 FILLER_24_189
*544 FILLER_24_195
*545 FILLER_24_197
*546 FILLER_24_209
*547 FILLER_24_221
*548 FILLER_24_233
*549 FILLER_24_245
*550 FILLER_24_251
*551 FILLER_24_253
*552 FILLER_24_265
*553 FILLER_24_27
*554 FILLER_24_277
*555 FILLER_24_289
*556 FILLER_24_29
*557 FILLER_24_297
*558 FILLER_24_3
*559 FILLER_24_41
*560 FILLER_24_53
*561 FILLER_24_65
*562 FILLER_24_77
*563 FILLER_24_83
*564 FILLER_24_85
*565 FILLER_24_97
*566 FILLER_25_105
*567 FILLER_25_111
*568 FILLER_25_113
*569 FILLER_25_125
*570 FILLER_25_137
*571 FILLER_25_149
*572 FILLER_25_15
*573 FILLER_25_161
*574 FILLER_25_167
*575 FILLER_25_169
*576 FILLER_25_181
*577 FILLER_25_193
*578 FILLER_25_205
*579 FILLER_25_217
*580 FILLER_25_223
*581 FILLER_25_225
*582 FILLER_25_237
*583 FILLER_25_249
*584 FILLER_25_261
*585 FILLER_25_27
*586 FILLER_25_273
*587 FILLER_25_279
*588 FILLER_25_281
*589 FILLER_25_293
*590 FILLER_25_3
*591 FILLER_25_39
*592 FILLER_25_51
*593 FILLER_25_55
*594 FILLER_25_57
*595 FILLER_25_69
*596 FILLER_25_81
*597 FILLER_25_93
*598 FILLER_26_109
*599 FILLER_26_121
*600 FILLER_26_133
*601 FILLER_26_139
*602 FILLER_26_141
*603 FILLER_26_15
*604 FILLER_26_153
*605 FILLER_26_165
*606 FILLER_26_177
*607 FILLER_26_189
*608 FILLER_26_195
*609 FILLER_26_197
*610 FILLER_26_209
*611 FILLER_26_221
*612 FILLER_26_233
*613 FILLER_26_245
*614 FILLER_26_251
*615 FILLER_26_253
*616 FILLER_26_265
*617 FILLER_26_27
*618 FILLER_26_277
*619 FILLER_26_289
*620 FILLER_26_29
*621 FILLER_26_297
*622 FILLER_26_3
*623 FILLER_26_41
*624 FILLER_26_53
*625 FILLER_26_65
*626 FILLER_26_77
*627 FILLER_26_83
*628 FILLER_26_85
*629 FILLER_26_97
*630 FILLER_27_105
*631 FILLER_27_111
*632 FILLER_27_113
*633 FILLER_27_125
*634 FILLER_27_137
*635 FILLER_27_149
*636 FILLER_27_15
*637 FILLER_27_161
*638 FILLER_27_167
*639 FILLER_27_169
*640 FILLER_27_181
*641 FILLER_27_193
*642 FILLER_27_205
*643 FILLER_27_217
*644 FILLER_27_223
*645 FILLER_27_225
*646 FILLER_27_237
*647 FILLER_27_249
*648 FILLER_27_261
*649 FILLER_27_27
*650 FILLER_27_273
*651 FILLER_27_279
*652 FILLER_27_281
*653 FILLER_27_293
*654 FILLER_27_3
*655 FILLER_27_39
*656 FILLER_27_51
*657 FILLER_27_55
*658 FILLER_27_57
*659 FILLER_27_69
*660 FILLER_27_81
*661 FILLER_27_93
*662 FILLER_28_109
*663 FILLER_28_121
*664 FILLER_28_133
*665 FILLER_28_139
*666 FILLER_28_141
*667 FILLER_28_15
*668 FILLER_28_153
*669 FILLER_28_165
*670 FILLER_28_177
*671 FILLER_28_189
*672 FILLER_28_195
*673 FILLER_28_197
*674 FILLER_28_209
*675 FILLER_28_221
*676 FILLER_28_233
*677 FILLER_28_245
*678 FILLER_28_251
*679 FILLER_28_253
*680 FILLER_28_265
*681 FILLER_28_27
*682 FILLER_28_277
*683 FILLER_28_289
*684 FILLER_28_29
*685 FILLER_28_297
*686 FILLER_28_3
*687 FILLER_28_41
*688 FILLER_28_53
*689 FILLER_28_65
*690 FILLER_28_77
*691 FILLER_28_83
*692 FILLER_28_85
*693 FILLER_28_97
*694 FILLER_29_105
*695 FILLER_29_111
*696 FILLER_29_113
*697 FILLER_29_125
*698 FILLER_29_137
*699 FILLER_29_149
*700 FILLER_29_15
*701 FILLER_29_161
*702 FILLER_29_167
*703 FILLER_29_169
*704 FILLER_29_181
*705 FILLER_29_193
*706 FILLER_29_205
*707 FILLER_29_217
*708 FILLER_29_223
*709 FILLER_29_225
*710 FILLER_29_237
*711 FILLER_29_249
*712 FILLER_29_261
*713 FILLER_29_27
*714 FILLER_29_273
*715 FILLER_29_279
*716 FILLER_29_281
*717 FILLER_29_293
*718 FILLER_29_3
*719 FILLER_29_39
*720 FILLER_29_51
*721 FILLER_29_55
*722 FILLER_29_57
*723 FILLER_29_69
*724 FILLER_29_81
*725 FILLER_29_93
*726 FILLER_2_109
*727 FILLER_2_121
*728 FILLER_2_133
*729 FILLER_2_139
*730 FILLER_2_141
*731 FILLER_2_15
*732 FILLER_2_153
*733 FILLER_2_165
*734 FILLER_2_177
*735 FILLER_2_189
*736 FILLER_2_195
*737 FILLER_2_197
*738 FILLER_2_209
*739 FILLER_2_221
*740 FILLER_2_233
*741 FILLER_2_245
*742 FILLER_2_251
*743 FILLER_2_253
*744 FILLER_2_265
*745 FILLER_2_27
*746 FILLER_2_277
*747 FILLER_2_289
*748 FILLER_2_29
*749 FILLER_2_297
*750 FILLER_2_3
*751 FILLER_2_41
*752 FILLER_2_53
*753 FILLER_2_65
*754 FILLER_2_77
*755 FILLER_2_83
*756 FILLER_2_85
*757 FILLER_2_97
*758 FILLER_30_109
*759 FILLER_30_121
*760 FILLER_30_133
*761 FILLER_30_139
*762 FILLER_30_141
*763 FILLER_30_15
*764 FILLER_30_153
*765 FILLER_30_165
*766 FILLER_30_177
*767 FILLER_30_189
*768 FILLER_30_195
*769 FILLER_30_197
*770 FILLER_30_209
*771 FILLER_30_221
*772 FILLER_30_233
*773 FILLER_30_245
*774 FILLER_30_251
*775 FILLER_30_253
*776 FILLER_30_265
*777 FILLER_30_27
*778 FILLER_30_277
*779 FILLER_30_289
*780 FILLER_30_29
*781 FILLER_30_297
*782 FILLER_30_3
*783 FILLER_30_41
*784 FILLER_30_53
*785 FILLER_30_65
*786 FILLER_30_77
*787 FILLER_30_83
*788 FILLER_30_85
*789 FILLER_30_97
*790 FILLER_31_105
*791 FILLER_31_111
*792 FILLER_31_113
*793 FILLER_31_125
*794 FILLER_31_137
*795 FILLER_31_149
*796 FILLER_31_15
*797 FILLER_31_161
*798 FILLER_31_167
*799 FILLER_31_169
*800 FILLER_31_181
*801 FILLER_31_193
*802 FILLER_31_205
*803 FILLER_31_217
*804 FILLER_31_223
*805 FILLER_31_225
*806 FILLER_31_237
*807 FILLER_31_249
*808 FILLER_31_261
*809 FILLER_31_27
*810 FILLER_31_273
*811 FILLER_31_279
*812 FILLER_31_281
*813 FILLER_31_293
*814 FILLER_31_3
*815 FILLER_31_39
*816 FILLER_31_51
*817 FILLER_31_55
*818 FILLER_31_57
*819 FILLER_31_69
*820 FILLER_31_81
*821 FILLER_31_93
*822 FILLER_32_109
*823 FILLER_32_121
*824 FILLER_32_133
*825 FILLER_32_139
*826 FILLER_32_141
*827 FILLER_32_15
*828 FILLER_32_153
*829 FILLER_32_165
*830 FILLER_32_177
*831 FILLER_32_189
*832 FILLER_32_195
*833 FILLER_32_197
*834 FILLER_32_209
*835 FILLER_32_221
*836 FILLER_32_233
*837 FILLER_32_245
*838 FILLER_32_251
*839 FILLER_32_253
*840 FILLER_32_265
*841 FILLER_32_27
*842 FILLER_32_277
*843 FILLER_32_289
*844 FILLER_32_29
*845 FILLER_32_297
*846 FILLER_32_3
*847 FILLER_32_41
*848 FILLER_32_53
*849 FILLER_32_65
*850 FILLER_32_77
*851 FILLER_32_83
*852 FILLER_32_85
*853 FILLER_32_97
*854 FILLER_33_105
*855 FILLER_33_111
*856 FILLER_33_113
*857 FILLER_33_125
*858 FILLER_33_137
*859 FILLER_33_149
*860 FILLER_33_15
*861 FILLER_33_161
*862 FILLER_33_167
*863 FILLER_33_169
*864 FILLER_33_181
*865 FILLER_33_193
*866 FILLER_33_205
*867 FILLER_33_217
*868 FILLER_33_223
*869 FILLER_33_225
*870 FILLER_33_237
*871 FILLER_33_249
*872 FILLER_33_261
*873 FILLER_33_27
*874 FILLER_33_273
*875 FILLER_33_279
*876 FILLER_33_281
*877 FILLER_33_293
*878 FILLER_33_3
*879 FILLER_33_39
*880 FILLER_33_51
*881 FILLER_33_55
*882 FILLER_33_57
*883 FILLER_33_69
*884 FILLER_33_81
*885 FILLER_33_93
*886 FILLER_34_109
*887 FILLER_34_121
*888 FILLER_34_133
*889 FILLER_34_139
*890 FILLER_34_141
*891 FILLER_34_15
*892 FILLER_34_153
*893 FILLER_34_165
*894 FILLER_34_177
*895 FILLER_34_189
*896 FILLER_34_195
*897 FILLER_34_197
*898 FILLER_34_209
*899 FILLER_34_221
*900 FILLER_34_233
*901 FILLER_34_245
*902 FILLER_34_251
*903 FILLER_34_253
*904 FILLER_34_265
*905 FILLER_34_27
*906 FILLER_34_277
*907 FILLER_34_289
*908 FILLER_34_29
*909 FILLER_34_297
*910 FILLER_34_3
*911 FILLER_34_41
*912 FILLER_34_53
*913 FILLER_34_65
*914 FILLER_34_77
*915 FILLER_34_83
*916 FILLER_34_85
*917 FILLER_34_97
*918 FILLER_35_105
*919 FILLER_35_111
*920 FILLER_35_113
*921 FILLER_35_125
*922 FILLER_35_137
*923 FILLER_35_149
*924 FILLER_35_161
*925 FILLER_35_167
*926 FILLER_35_169
*927 FILLER_35_181
*928 FILLER_35_193
*929 FILLER_35_20
*930 FILLER_35_205
*931 FILLER_35_217
*932 FILLER_35_223
*933 FILLER_35_225
*934 FILLER_35_237
*935 FILLER_35_249
*936 FILLER_35_261
*937 FILLER_35_273
*938 FILLER_35_279
*939 FILLER_35_281
*940 FILLER_35_293
*941 FILLER_35_3
*942 FILLER_35_32
*943 FILLER_35_44
*944 FILLER_35_57
*945 FILLER_35_69
*946 FILLER_35_8
*947 FILLER_35_81
*948 FILLER_35_93
*949 FILLER_36_109
*950 FILLER_36_121
*951 FILLER_36_133
*952 FILLER_36_139
*953 FILLER_36_141
*954 FILLER_36_15
*955 FILLER_36_153
*956 FILLER_36_165
*957 FILLER_36_177
*958 FILLER_36_189
*959 FILLER_36_195
*960 FILLER_36_197
*961 FILLER_36_209
*962 FILLER_36_221
*963 FILLER_36_233
*964 FILLER_36_245
*965 FILLER_36_251
*966 FILLER_36_253
*967 FILLER_36_265
*968 FILLER_36_27
*969 FILLER_36_277
*970 FILLER_36_289
*971 FILLER_36_29
*972 FILLER_36_297
*973 FILLER_36_3
*974 FILLER_36_41
*975 FILLER_36_53
*976 FILLER_36_65
*977 FILLER_36_77
*978 FILLER_36_83
*979 FILLER_36_85
*980 FILLER_36_97
*981 FILLER_37_105
*982 FILLER_37_111
*983 FILLER_37_113
*984 FILLER_37_125
*985 FILLER_37_137
*986 FILLER_37_149
*987 FILLER_37_15
*988 FILLER_37_161
*989 FILLER_37_167
*990 FILLER_37_169
*991 FILLER_37_181
*992 FILLER_37_193
*993 FILLER_37_205
*994 FILLER_37_217
*995 FILLER_37_223
*996 FILLER_37_225
*997 FILLER_37_237
*998 FILLER_37_249
*999 FILLER_37_261
*1000 FILLER_37_27
*1001 FILLER_37_273
*1002 FILLER_37_279
*1003 FILLER_37_281
*1004 FILLER_37_293
*1005 FILLER_37_3
*1006 FILLER_37_39
*1007 FILLER_37_51
*1008 FILLER_37_55
*1009 FILLER_37_57
*1010 FILLER_37_69
*1011 FILLER_37_81
*1012 FILLER_37_93
*1013 FILLER_38_109
*1014 FILLER_38_121
*1015 FILLER_38_133
*1016 FILLER_38_139
*1017 FILLER_38_141
*1018 FILLER_38_15
*1019 FILLER_38_153
*1020 FILLER_38_165
*1021 FILLER_38_177
*1022 FILLER_38_189
*1023 FILLER_38_195
*1024 FILLER_38_197
*1025 FILLER_38_209
*1026 FILLER_38_221
*1027 FILLER_38_233
*1028 FILLER_38_245
*1029 FILLER_38_251
*1030 FILLER_38_253
*1031 FILLER_38_265
*1032 FILLER_38_27
*1033 FILLER_38_277
*1034 FILLER_38_289
*1035 FILLER_38_29
*1036 FILLER_38_297
*1037 FILLER_38_3
*1038 FILLER_38_41
*1039 FILLER_38_53
*1040 FILLER_38_65
*1041 FILLER_38_77
*1042 FILLER_38_83
*1043 FILLER_38_85
*1044 FILLER_38_97
*1045 FILLER_39_105
*1046 FILLER_39_111
*1047 FILLER_39_113
*1048 FILLER_39_125
*1049 FILLER_39_137
*1050 FILLER_39_149
*1051 FILLER_39_161
*1052 FILLER_39_167
*1053 FILLER_39_169
*1054 FILLER_39_181
*1055 FILLER_39_193
*1056 FILLER_39_20
*1057 FILLER_39_205
*1058 FILLER_39_217
*1059 FILLER_39_223
*1060 FILLER_39_225
*1061 FILLER_39_237
*1062 FILLER_39_249
*1063 FILLER_39_261
*1064 FILLER_39_273
*1065 FILLER_39_279
*1066 FILLER_39_281
*1067 FILLER_39_293
*1068 FILLER_39_3
*1069 FILLER_39_32
*1070 FILLER_39_44
*1071 FILLER_39_57
*1072 FILLER_39_69
*1073 FILLER_39_8
*1074 FILLER_39_81
*1075 FILLER_39_93
*1076 FILLER_3_105
*1077 FILLER_3_111
*1078 FILLER_3_113
*1079 FILLER_3_125
*1080 FILLER_3_137
*1081 FILLER_3_149
*1082 FILLER_3_15
*1083 FILLER_3_161
*1084 FILLER_3_167
*1085 FILLER_3_169
*1086 FILLER_3_181
*1087 FILLER_3_193
*1088 FILLER_3_205
*1089 FILLER_3_217
*1090 FILLER_3_223
*1091 FILLER_3_225
*1092 FILLER_3_237
*1093 FILLER_3_249
*1094 FILLER_3_261
*1095 FILLER_3_27
*1096 FILLER_3_273
*1097 FILLER_3_279
*1098 FILLER_3_281
*1099 FILLER_3_293
*1100 FILLER_3_3
*1101 FILLER_3_39
*1102 FILLER_3_51
*1103 FILLER_3_55
*1104 FILLER_3_57
*1105 FILLER_3_69
*1106 FILLER_3_81
*1107 FILLER_3_93
*1108 FILLER_40_109
*1109 FILLER_40_121
*1110 FILLER_40_133
*1111 FILLER_40_139
*1112 FILLER_40_141
*1113 FILLER_40_15
*1114 FILLER_40_153
*1115 FILLER_40_165
*1116 FILLER_40_177
*1117 FILLER_40_189
*1118 FILLER_40_195
*1119 FILLER_40_197
*1120 FILLER_40_209
*1121 FILLER_40_221
*1122 FILLER_40_233
*1123 FILLER_40_245
*1124 FILLER_40_251
*1125 FILLER_40_253
*1126 FILLER_40_265
*1127 FILLER_40_27
*1128 FILLER_40_277
*1129 FILLER_40_289
*1130 FILLER_40_29
*1131 FILLER_40_297
*1132 FILLER_40_3
*1133 FILLER_40_41
*1134 FILLER_40_53
*1135 FILLER_40_65
*1136 FILLER_40_77
*1137 FILLER_40_83
*1138 FILLER_40_85
*1139 FILLER_40_97
*1140 FILLER_41_105
*1141 FILLER_41_111
*1142 FILLER_41_113
*1143 FILLER_41_125
*1144 FILLER_41_137
*1145 FILLER_41_149
*1146 FILLER_41_15
*1147 FILLER_41_161
*1148 FILLER_41_167
*1149 FILLER_41_169
*1150 FILLER_41_181
*1151 FILLER_41_193
*1152 FILLER_41_205
*1153 FILLER_41_217
*1154 FILLER_41_223
*1155 FILLER_41_225
*1156 FILLER_41_237
*1157 FILLER_41_249
*1158 FILLER_41_261
*1159 FILLER_41_27
*1160 FILLER_41_273
*1161 FILLER_41_279
*1162 FILLER_41_281
*1163 FILLER_41_293
*1164 FILLER_41_3
*1165 FILLER_41_39
*1166 FILLER_41_51
*1167 FILLER_41_55
*1168 FILLER_41_57
*1169 FILLER_41_69
*1170 FILLER_41_81
*1171 FILLER_41_93
*1172 FILLER_42_109
*1173 FILLER_42_121
*1174 FILLER_42_133
*1175 FILLER_42_139
*1176 FILLER_42_141
*1177 FILLER_42_153
*1178 FILLER_42_165
*1179 FILLER_42_177
*1180 FILLER_42_189
*1181 FILLER_42_195
*1182 FILLER_42_197
*1183 FILLER_42_20
*1184 FILLER_42_209
*1185 FILLER_42_221
*1186 FILLER_42_233
*1187 FILLER_42_245
*1188 FILLER_42_251
*1189 FILLER_42_253
*1190 FILLER_42_265
*1191 FILLER_42_277
*1192 FILLER_42_289
*1193 FILLER_42_29
*1194 FILLER_42_297
*1195 FILLER_42_3
*1196 FILLER_42_41
*1197 FILLER_42_53
*1198 FILLER_42_65
*1199 FILLER_42_77
*1200 FILLER_42_8
*1201 FILLER_42_83
*1202 FILLER_42_85
*1203 FILLER_42_97
*1204 FILLER_43_105
*1205 FILLER_43_111
*1206 FILLER_43_113
*1207 FILLER_43_125
*1208 FILLER_43_137
*1209 FILLER_43_149
*1210 FILLER_43_15
*1211 FILLER_43_161
*1212 FILLER_43_167
*1213 FILLER_43_169
*1214 FILLER_43_181
*1215 FILLER_43_193
*1216 FILLER_43_205
*1217 FILLER_43_217
*1218 FILLER_43_223
*1219 FILLER_43_225
*1220 FILLER_43_237
*1221 FILLER_43_249
*1222 FILLER_43_261
*1223 FILLER_43_27
*1224 FILLER_43_273
*1225 FILLER_43_279
*1226 FILLER_43_281
*1227 FILLER_43_293
*1228 FILLER_43_3
*1229 FILLER_43_39
*1230 FILLER_43_51
*1231 FILLER_43_55
*1232 FILLER_43_57
*1233 FILLER_43_69
*1234 FILLER_43_81
*1235 FILLER_43_93
*1236 FILLER_44_109
*1237 FILLER_44_121
*1238 FILLER_44_133
*1239 FILLER_44_139
*1240 FILLER_44_141
*1241 FILLER_44_15
*1242 FILLER_44_153
*1243 FILLER_44_165
*1244 FILLER_44_177
*1245 FILLER_44_189
*1246 FILLER_44_195
*1247 FILLER_44_197
*1248 FILLER_44_209
*1249 FILLER_44_221
*1250 FILLER_44_233
*1251 FILLER_44_245
*1252 FILLER_44_251
*1253 FILLER_44_253
*1254 FILLER_44_265
*1255 FILLER_44_27
*1256 FILLER_44_277
*1257 FILLER_44_289
*1258 FILLER_44_29
*1259 FILLER_44_297
*1260 FILLER_44_3
*1261 FILLER_44_41
*1262 FILLER_44_53
*1263 FILLER_44_65
*1264 FILLER_44_77
*1265 FILLER_44_83
*1266 FILLER_44_85
*1267 FILLER_44_97
*1268 FILLER_45_105
*1269 FILLER_45_111
*1270 FILLER_45_113
*1271 FILLER_45_125
*1272 FILLER_45_137
*1273 FILLER_45_149
*1274 FILLER_45_15
*1275 FILLER_45_161
*1276 FILLER_45_167
*1277 FILLER_45_169
*1278 FILLER_45_181
*1279 FILLER_45_193
*1280 FILLER_45_205
*1281 FILLER_45_217
*1282 FILLER_45_223
*1283 FILLER_45_225
*1284 FILLER_45_237
*1285 FILLER_45_249
*1286 FILLER_45_261
*1287 FILLER_45_27
*1288 FILLER_45_273
*1289 FILLER_45_279
*1290 FILLER_45_281
*1291 FILLER_45_293
*1292 FILLER_45_3
*1293 FILLER_45_39
*1294 FILLER_45_51
*1295 FILLER_45_55
*1296 FILLER_45_57
*1297 FILLER_45_69
*1298 FILLER_45_81
*1299 FILLER_45_93
*1300 FILLER_46_109
*1301 FILLER_46_121
*1302 FILLER_46_133
*1303 FILLER_46_139
*1304 FILLER_46_141
*1305 FILLER_46_153
*1306 FILLER_46_165
*1307 FILLER_46_177
*1308 FILLER_46_189
*1309 FILLER_46_195
*1310 FILLER_46_197
*1311 FILLER_46_20
*1312 FILLER_46_209
*1313 FILLER_46_221
*1314 FILLER_46_233
*1315 FILLER_46_245
*1316 FILLER_46_251
*1317 FILLER_46_253
*1318 FILLER_46_265
*1319 FILLER_46_277
*1320 FILLER_46_289
*1321 FILLER_46_29
*1322 FILLER_46_297
*1323 FILLER_46_3
*1324 FILLER_46_41
*1325 FILLER_46_53
*1326 FILLER_46_65
*1327 FILLER_46_77
*1328 FILLER_46_8
*1329 FILLER_46_83
*1330 FILLER_46_85
*1331 FILLER_46_97
*1332 FILLER_47_105
*1333 FILLER_47_111
*1334 FILLER_47_113
*1335 FILLER_47_125
*1336 FILLER_47_137
*1337 FILLER_47_149
*1338 FILLER_47_15
*1339 FILLER_47_161
*1340 FILLER_47_167
*1341 FILLER_47_169
*1342 FILLER_47_181
*1343 FILLER_47_193
*1344 FILLER_47_205
*1345 FILLER_47_217
*1346 FILLER_47_223
*1347 FILLER_47_225
*1348 FILLER_47_237
*1349 FILLER_47_249
*1350 FILLER_47_261
*1351 FILLER_47_27
*1352 FILLER_47_273
*1353 FILLER_47_279
*1354 FILLER_47_281
*1355 FILLER_47_293
*1356 FILLER_47_3
*1357 FILLER_47_39
*1358 FILLER_47_51
*1359 FILLER_47_55
*1360 FILLER_47_57
*1361 FILLER_47_69
*1362 FILLER_47_81
*1363 FILLER_47_93
*1364 FILLER_48_109
*1365 FILLER_48_121
*1366 FILLER_48_133
*1367 FILLER_48_139
*1368 FILLER_48_141
*1369 FILLER_48_15
*1370 FILLER_48_153
*1371 FILLER_48_165
*1372 FILLER_48_177
*1373 FILLER_48_189
*1374 FILLER_48_195
*1375 FILLER_48_197
*1376 FILLER_48_209
*1377 FILLER_48_221
*1378 FILLER_48_233
*1379 FILLER_48_245
*1380 FILLER_48_251
*1381 FILLER_48_253
*1382 FILLER_48_265
*1383 FILLER_48_27
*1384 FILLER_48_277
*1385 FILLER_48_289
*1386 FILLER_48_29
*1387 FILLER_48_297
*1388 FILLER_48_3
*1389 FILLER_48_41
*1390 FILLER_48_53
*1391 FILLER_48_65
*1392 FILLER_48_77
*1393 FILLER_48_83
*1394 FILLER_48_85
*1395 FILLER_48_97
*1396 FILLER_49_105
*1397 FILLER_49_111
*1398 FILLER_49_113
*1399 FILLER_49_125
*1400 FILLER_49_137
*1401 FILLER_49_149
*1402 FILLER_49_15
*1403 FILLER_49_161
*1404 FILLER_49_167
*1405 FILLER_49_169
*1406 FILLER_49_181
*1407 FILLER_49_193
*1408 FILLER_49_205
*1409 FILLER_49_217
*1410 FILLER_49_223
*1411 FILLER_49_225
*1412 FILLER_49_237
*1413 FILLER_49_249
*1414 FILLER_49_261
*1415 FILLER_49_27
*1416 FILLER_49_273
*1417 FILLER_49_279
*1418 FILLER_49_281
*1419 FILLER_49_293
*1420 FILLER_49_3
*1421 FILLER_49_39
*1422 FILLER_49_51
*1423 FILLER_49_55
*1424 FILLER_49_57
*1425 FILLER_49_69
*1426 FILLER_49_81
*1427 FILLER_49_93
*1428 FILLER_4_109
*1429 FILLER_4_121
*1430 FILLER_4_133
*1431 FILLER_4_139
*1432 FILLER_4_141
*1433 FILLER_4_15
*1434 FILLER_4_153
*1435 FILLER_4_165
*1436 FILLER_4_177
*1437 FILLER_4_189
*1438 FILLER_4_195
*1439 FILLER_4_197
*1440 FILLER_4_209
*1441 FILLER_4_221
*1442 FILLER_4_233
*1443 FILLER_4_245
*1444 FILLER_4_251
*1445 FILLER_4_253
*1446 FILLER_4_265
*1447 FILLER_4_27
*1448 FILLER_4_277
*1449 FILLER_4_289
*1450 FILLER_4_29
*1451 FILLER_4_297
*1452 FILLER_4_3
*1453 FILLER_4_41
*1454 FILLER_4_53
*1455 FILLER_4_65
*1456 FILLER_4_77
*1457 FILLER_4_83
*1458 FILLER_4_85
*1459 FILLER_4_97
*1460 FILLER_50_109
*1461 FILLER_50_121
*1462 FILLER_50_133
*1463 FILLER_50_139
*1464 FILLER_50_141
*1465 FILLER_50_153
*1466 FILLER_50_165
*1467 FILLER_50_177
*1468 FILLER_50_189
*1469 FILLER_50_195
*1470 FILLER_50_197
*1471 FILLER_50_20
*1472 FILLER_50_209
*1473 FILLER_50_221
*1474 FILLER_50_233
*1475 FILLER_50_245
*1476 FILLER_50_251
*1477 FILLER_50_253
*1478 FILLER_50_265
*1479 FILLER_50_277
*1480 FILLER_50_289
*1481 FILLER_50_29
*1482 FILLER_50_297
*1483 FILLER_50_3
*1484 FILLER_50_41
*1485 FILLER_50_53
*1486 FILLER_50_65
*1487 FILLER_50_77
*1488 FILLER_50_8
*1489 FILLER_50_83
*1490 FILLER_50_85
*1491 FILLER_50_97
*1492 FILLER_51_105
*1493 FILLER_51_111
*1494 FILLER_51_113
*1495 FILLER_51_125
*1496 FILLER_51_137
*1497 FILLER_51_149
*1498 FILLER_51_15
*1499 FILLER_51_161
*1500 FILLER_51_167
*1501 FILLER_51_169
*1502 FILLER_51_181
*1503 FILLER_51_193
*1504 FILLER_51_205
*1505 FILLER_51_217
*1506 FILLER_51_223
*1507 FILLER_51_225
*1508 FILLER_51_237
*1509 FILLER_51_249
*1510 FILLER_51_261
*1511 FILLER_51_27
*1512 FILLER_51_273
*1513 FILLER_51_279
*1514 FILLER_51_281
*1515 FILLER_51_293
*1516 FILLER_51_3
*1517 FILLER_51_39
*1518 FILLER_51_51
*1519 FILLER_51_55
*1520 FILLER_51_57
*1521 FILLER_51_69
*1522 FILLER_51_81
*1523 FILLER_51_93
*1524 FILLER_52_109
*1525 FILLER_52_121
*1526 FILLER_52_133
*1527 FILLER_52_139
*1528 FILLER_52_141
*1529 FILLER_52_15
*1530 FILLER_52_153
*1531 FILLER_52_165
*1532 FILLER_52_177
*1533 FILLER_52_189
*1534 FILLER_52_195
*1535 FILLER_52_197
*1536 FILLER_52_209
*1537 FILLER_52_221
*1538 FILLER_52_233
*1539 FILLER_52_245
*1540 FILLER_52_251
*1541 FILLER_52_253
*1542 FILLER_52_265
*1543 FILLER_52_27
*1544 FILLER_52_277
*1545 FILLER_52_289
*1546 FILLER_52_29
*1547 FILLER_52_297
*1548 FILLER_52_3
*1549 FILLER_52_41
*1550 FILLER_52_53
*1551 FILLER_52_65
*1552 FILLER_52_77
*1553 FILLER_52_83
*1554 FILLER_52_85
*1555 FILLER_52_97
*1556 FILLER_53_105
*1557 FILLER_53_111
*1558 FILLER_53_113
*1559 FILLER_53_125
*1560 FILLER_53_137
*1561 FILLER_53_149
*1562 FILLER_53_15
*1563 FILLER_53_161
*1564 FILLER_53_167
*1565 FILLER_53_169
*1566 FILLER_53_181
*1567 FILLER_53_193
*1568 FILLER_53_205
*1569 FILLER_53_217
*1570 FILLER_53_223
*1571 FILLER_53_225
*1572 FILLER_53_237
*1573 FILLER_53_249
*1574 FILLER_53_261
*1575 FILLER_53_27
*1576 FILLER_53_273
*1577 FILLER_53_279
*1578 FILLER_53_281
*1579 FILLER_53_293
*1580 FILLER_53_3
*1581 FILLER_53_39
*1582 FILLER_53_51
*1583 FILLER_53_55