*SPEF "ieee 1481-1999"
*DESIGN "user_module_363170982149101569"
*DATE "11:11:11 Fri 11 11, 1111"
*VENDOR "OpenRCX"
*PROGRAM "Parallel Extraction"
*VERSION "1.0"
*DESIGN_FLOW "NAME_SCOPE LOCAL" "PIN_CAP NONE"
*DIVIDER /
*DELIMITER :
*BUS_DELIMITER []
*T_UNIT 1 NS
*C_UNIT 1 PF
*R_UNIT 1 OHM
*L_UNIT 1 HENRY

*NAME_MAP
*1 io_in[0]
*2 io_in[1]
*3 io_in[2]
*4 io_in[3]
*5 io_in[4]
*6 io_in[5]
*7 io_in[6]
*8 io_in[7]
*9 net7
*10 io_out[1]
*11 net1
*12 net2
*13 net3
*14 net4
*15 net5
*16 net6
*19 _00_
*20 and1\.out
*21 FILLER_0_109
*22 FILLER_0_113
*23 FILLER_0_125
*24 FILLER_0_137
*25 FILLER_0_141
*26 FILLER_0_15
*27 FILLER_0_153
*28 FILLER_0_165
*29 FILLER_0_169
*30 FILLER_0_181
*31 FILLER_0_193
*32 FILLER_0_197
*33 FILLER_0_209
*34 FILLER_0_221
*35 FILLER_0_225
*36 FILLER_0_237
*37 FILLER_0_249
*38 FILLER_0_253
*39 FILLER_0_265
*40 FILLER_0_27
*41 FILLER_0_277
*42 FILLER_0_281
*43 FILLER_0_29
*44 FILLER_0_293
*45 FILLER_0_3
*46 FILLER_0_41
*47 FILLER_0_53
*48 FILLER_0_57
*49 FILLER_0_69
*50 FILLER_0_81
*51 FILLER_0_85
*52 FILLER_0_97
*53 FILLER_10_109
*54 FILLER_10_121
*55 FILLER_10_133
*56 FILLER_10_139
*57 FILLER_10_141
*58 FILLER_10_15
*59 FILLER_10_153
*60 FILLER_10_165
*61 FILLER_10_177
*62 FILLER_10_189
*63 FILLER_10_195
*64 FILLER_10_197
*65 FILLER_10_209
*66 FILLER_10_221
*67 FILLER_10_233
*68 FILLER_10_245
*69 FILLER_10_251
*70 FILLER_10_253
*71 FILLER_10_265
*72 FILLER_10_27
*73 FILLER_10_277
*74 FILLER_10_289
*75 FILLER_10_29
*76 FILLER_10_297
*77 FILLER_10_3
*78 FILLER_10_41
*79 FILLER_10_53
*80 FILLER_10_65
*81 FILLER_10_77
*82 FILLER_10_83
*83 FILLER_10_85
*84 FILLER_10_97
*85 FILLER_11_105
*86 FILLER_11_111
*87 FILLER_11_113
*88 FILLER_11_125
*89 FILLER_11_137
*90 FILLER_11_149
*91 FILLER_11_15
*92 FILLER_11_161
*93 FILLER_11_167
*94 FILLER_11_169
*95 FILLER_11_181
*96 FILLER_11_193
*97 FILLER_11_205
*98 FILLER_11_217
*99 FILLER_11_223
*100 FILLER_11_225
*101 FILLER_11_237
*102 FILLER_11_249
*103 FILLER_11_261
*104 FILLER_11_27
*105 FILLER_11_273
*106 FILLER_11_279
*107 FILLER_11_281
*108 FILLER_11_293
*109 FILLER_11_3
*110 FILLER_11_39
*111 FILLER_11_51
*112 FILLER_11_55
*113 FILLER_11_57
*114 FILLER_11_69
*115 FILLER_11_81
*116 FILLER_11_93
*117 FILLER_12_109
*118 FILLER_12_121
*119 FILLER_12_133
*120 FILLER_12_139
*121 FILLER_12_141
*122 FILLER_12_15
*123 FILLER_12_153
*124 FILLER_12_165
*125 FILLER_12_177
*126 FILLER_12_189
*127 FILLER_12_195
*128 FILLER_12_197
*129 FILLER_12_209
*130 FILLER_12_221
*131 FILLER_12_233
*132 FILLER_12_245
*133 FILLER_12_251
*134 FILLER_12_253
*135 FILLER_12_265
*136 FILLER_12_27
*137 FILLER_12_277
*138 FILLER_12_289
*139 FILLER_12_29
*140 FILLER_12_297
*141 FILLER_12_3
*142 FILLER_12_41
*143 FILLER_12_53
*144 FILLER_12_65
*145 FILLER_12_77
*146 FILLER_12_83
*147 FILLER_12_85
*148 FILLER_12_97
*149 FILLER_13_105
*150 FILLER_13_111
*151 FILLER_13_113
*152 FILLER_13_125
*153 FILLER_13_137
*154 FILLER_13_149
*155 FILLER_13_15
*156 FILLER_13_161
*157 FILLER_13_167
*158 FILLER_13_169
*159 FILLER_13_181
*160 FILLER_13_193
*161 FILLER_13_205
*162 FILLER_13_217
*163 FILLER_13_223
*164 FILLER_13_225
*165 FILLER_13_237
*166 FILLER_13_249
*167 FILLER_13_261
*168 FILLER_13_27
*169 FILLER_13_273
*170 FILLER_13_279
*171 FILLER_13_281
*172 FILLER_13_293
*173 FILLER_13_3
*174 FILLER_13_39
*175 FILLER_13_51
*176 FILLER_13_55
*177 FILLER_13_57
*178 FILLER_13_69
*179 FILLER_13_81
*180 FILLER_13_93
*181 FILLER_14_109
*182 FILLER_14_121
*183 FILLER_14_133
*184 FILLER_14_139
*185 FILLER_14_141
*186 FILLER_14_15
*187 FILLER_14_153
*188 FILLER_14_165
*189 FILLER_14_177
*190 FILLER_14_189
*191 FILLER_14_195
*192 FILLER_14_197
*193 FILLER_14_209
*194 FILLER_14_221
*195 FILLER_14_233
*196 FILLER_14_245
*197 FILLER_14_251
*198 FILLER_14_253
*199 FILLER_14_265
*200 FILLER_14_27
*201 FILLER_14_277
*202 FILLER_14_289
*203 FILLER_14_29
*204 FILLER_14_297
*205 FILLER_14_3
*206 FILLER_14_41
*207 FILLER_14_53
*208 FILLER_14_65
*209 FILLER_14_77
*210 FILLER_14_83
*211 FILLER_14_85
*212 FILLER_14_97
*213 FILLER_15_105
*214 FILLER_15_111
*215 FILLER_15_113
*216 FILLER_15_125
*217 FILLER_15_137
*218 FILLER_15_149
*219 FILLER_15_15
*220 FILLER_15_161
*221 FILLER_15_167
*222 FILLER_15_169
*223 FILLER_15_181
*224 FILLER_15_193
*225 FILLER_15_205
*226 FILLER_15_217
*227 FILLER_15_223
*228 FILLER_15_225
*229 FILLER_15_237
*230 FILLER_15_249
*231 FILLER_15_261
*232 FILLER_15_27
*233 FILLER_15_273
*234 FILLER_15_279
*235 FILLER_15_281
*236 FILLER_15_293
*237 FILLER_15_3
*238 FILLER_15_39
*239 FILLER_15_51
*240 FILLER_15_55
*241 FILLER_15_57
*242 FILLER_15_69
*243 FILLER_15_81
*244 FILLER_15_93
*245 FILLER_16_109
*246 FILLER_16_121
*247 FILLER_16_133
*248 FILLER_16_139
*249 FILLER_16_141
*250 FILLER_16_15
*251 FILLER_16_153
*252 FILLER_16_165
*253 FILLER_16_177
*254 FILLER_16_189
*255 FILLER_16_195
*256 FILLER_16_197
*257 FILLER_16_209
*258 FILLER_16_221
*259 FILLER_16_233
*260 FILLER_16_245
*261 FILLER_16_251
*262 FILLER_16_253
*263 FILLER_16_265
*264 FILLER_16_27
*265 FILLER_16_277
*266 FILLER_16_289
*267 FILLER_16_29
*268 FILLER_16_297
*269 FILLER_16_3
*270 FILLER_16_41
*271 FILLER_16_53
*272 FILLER_16_65
*273 FILLER_16_77
*274 FILLER_16_83
*275 FILLER_16_85
*276 FILLER_16_97
*277 FILLER_17_105
*278 FILLER_17_111
*279 FILLER_17_113
*280 FILLER_17_125
*281 FILLER_17_137
*282 FILLER_17_149
*283 FILLER_17_15
*284 FILLER_17_161
*285 FILLER_17_167
*286 FILLER_17_169
*287 FILLER_17_181
*288 FILLER_17_193
*289 FILLER_17_205
*290 FILLER_17_217
*291 FILLER_17_223
*292 FILLER_17_225
*293 FILLER_17_237
*294 FILLER_17_249
*295 FILLER_17_261
*296 FILLER_17_27
*297 FILLER_17_273
*298 FILLER_17_279
*299 FILLER_17_281
*300 FILLER_17_293
*301 FILLER_17_3
*302 FILLER_17_39
*303 FILLER_17_51
*304 FILLER_17_55
*305 FILLER_17_57
*306 FILLER_17_69
*307 FILLER_17_81
*308 FILLER_17_93
*309 FILLER_18_109
*310 FILLER_18_121
*311 FILLER_18_133
*312 FILLER_18_139
*313 FILLER_18_141
*314 FILLER_18_15
*315 FILLER_18_153
*316 FILLER_18_165
*317 FILLER_18_177
*318 FILLER_18_189
*319 FILLER_18_195
*320 FILLER_18_197
*321 FILLER_18_209
*322 FILLER_18_221
*323 FILLER_18_233
*324 FILLER_18_245
*325 FILLER_18_251
*326 FILLER_18_253
*327 FILLER_18_265
*328 FILLER_18_27
*329 FILLER_18_277
*330 FILLER_18_289
*331 FILLER_18_29
*332 FILLER_18_297
*333 FILLER_18_3
*334 FILLER_18_41
*335 FILLER_18_53
*336 FILLER_18_65
*337 FILLER_18_77
*338 FILLER_18_83
*339 FILLER_18_85
*340 FILLER_18_97
*341 FILLER_19_105
*342 FILLER_19_111
*343 FILLER_19_113
*344 FILLER_19_125
*345 FILLER_19_137
*346 FILLER_19_149
*347 FILLER_19_15
*348 FILLER_19_161
*349 FILLER_19_167
*350 FILLER_19_169
*351 FILLER_19_181
*352 FILLER_19_193
*353 FILLER_19_205
*354 FILLER_19_217
*355 FILLER_19_223
*356 FILLER_19_225
*357 FILLER_19_237
*358 FILLER_19_249
*359 FILLER_19_261
*360 FILLER_19_27
*361 FILLER_19_273
*362 FILLER_19_279
*363 FILLER_19_281
*364 FILLER_19_293
*365 FILLER_19_3
*366 FILLER_19_39
*367 FILLER_19_51
*368 FILLER_19_55
*369 FILLER_19_57
*370 FILLER_19_69
*371 FILLER_19_81
*372 FILLER_19_93
*373 FILLER_1_105
*374 FILLER_1_111
*375 FILLER_1_113
*376 FILLER_1_125
*377 FILLER_1_137
*378 FILLER_1_149
*379 FILLER_1_15
*380 FILLER_1_161
*381 FILLER_1_167
*382 FILLER_1_169
*383 FILLER_1_181
*384 FILLER_1_193
*385 FILLER_1_205
*386 FILLER_1_217
*387 FILLER_1_223
*388 FILLER_1_225
*389 FILLER_1_237
*390 FILLER_1_249
*391 FILLER_1_261
*392 FILLER_1_27
*393 FILLER_1_273
*394 FILLER_1_279
*395 FILLER_1_281
*396 FILLER_1_293
*397 FILLER_1_3
*398 FILLER_1_39
*399 FILLER_1_51
*400 FILLER_1_55
*401 FILLER_1_57
*402 FILLER_1_69
*403 FILLER_1_81
*404 FILLER_1_93
*405 FILLER_20_109
*406 FILLER_20_121
*407 FILLER_20_133
*408 FILLER_20_139
*409 FILLER_20_141
*410 FILLER_20_15
*411 FILLER_20_153
*412 FILLER_20_165
*413 FILLER_20_177
*414 FILLER_20_189
*415 FILLER_20_195
*416 FILLER_20_197
*417 FILLER_20_209
*418 FILLER_20_221
*419 FILLER_20_233
*420 FILLER_20_245
*421 FILLER_20_251
*422 FILLER_20_253
*423 FILLER_20_265
*424 FILLER_20_27
*425 FILLER_20_277
*426 FILLER_20_289
*427 FILLER_20_29
*428 FILLER_20_297
*429 FILLER_20_3
*430 FILLER_20_41
*431 FILLER_20_53
*432 FILLER_20_65
*433 FILLER_20_77
*434 FILLER_20_83
*435 FILLER_20_85
*436 FILLER_20_97
*437 FILLER_21_105
*438 FILLER_21_111
*439 FILLER_21_113
*440 FILLER_21_125
*441 FILLER_21_137
*442 FILLER_21_149
*443 FILLER_21_15
*444 FILLER_21_161
*445 FILLER_21_167
*446 FILLER_21_169
*447 FILLER_21_181
*448 FILLER_21_193
*449 FILLER_21_205
*450 FILLER_21_217
*451 FILLER_21_223
*452 FILLER_21_225
*453 FILLER_21_237
*454 FILLER_21_249
*455 FILLER_21_261
*456 FILLER_21_27
*457 FILLER_21_273
*458 FILLER_21_279
*459 FILLER_21_281
*460 FILLER_21_293
*461 FILLER_21_3
*462 FILLER_21_39
*463 FILLER_21_51
*464 FILLER_21_55
*465 FILLER_21_57
*466 FILLER_21_69
*467 FILLER_21_81
*468 FILLER_21_93
*469 FILLER_22_109
*470 FILLER_22_121
*471 FILLER_22_133
*472 FILLER_22_139
*473 FILLER_22_141
*474 FILLER_22_15
*475 FILLER_22_153
*476 FILLER_22_165
*477 FILLER_22_177
*478 FILLER_22_189
*479 FILLER_22_195
*480 FILLER_22_197
*481 FILLER_22_209
*482 FILLER_22_221
*483 FILLER_22_233
*484 FILLER_22_245
*485 FILLER_22_251
*486 FILLER_22_253
*487 FILLER_22_265
*488 FILLER_22_27
*489 FILLER_22_277
*490 FILLER_22_289
*491 FILLER_22_29
*492 FILLER_22_297
*493 FILLER_22_3
*494 FILLER_22_41
*495 FILLER_22_53
*496 FILLER_22_65
*497 FILLER_22_77
*498 FILLER_22_83
*499 FILLER_22_85
*500 FILLER_22_97
*501 FILLER_23_105
*502 FILLER_23_111
*503 FILLER_23_113
*504 FILLER_23_125
*505 FILLER_23_137
*506 FILLER_23_149
*507 FILLER_23_15
*508 FILLER_23_161
*509 FILLER_23_167
*510 FILLER_23_169
*511 FILLER_23_181
*512 FILLER_23_193
*513 FILLER_23_205
*514 FILLER_23_217
*515 FILLER_23_223
*516 FILLER_23_225
*517 FILLER_23_237
*518 FILLER_23_249
*519 FILLER_23_261
*520 FILLER_23_27
*521 FILLER_23_273
*522 FILLER_23_279
*523 FILLER_23_281
*524 FILLER_23_293
*525 FILLER_23_3
*526 FILLER_23_39
*527 FILLER_23_51
*528 FILLER_23_55
*529 FILLER_23_57
*530 FILLER_23_69
*531 FILLER_23_81
*532 FILLER_23_93
*533 FILLER_24_109
*534 FILLER_24_121
*535 FILLER_24_133
*536 FILLER_24_139
*537 FILLER_24_141
*538 FILLER_24_15
*539 FILLER_24_153
*540 FILLER_24_165
*541 FILLER_24_177
*542 FILLER_24_189
*543 FILLER_24_195
*544 FILLER_24_197
*545 FILLER_24_209
*546 FILLER_24_221
*547 FILLER_24_233
*548 FILLER_24_245
*549 FILLER_24_251
*550 FILLER_24_253
*551 FILLER_24_265
*552 FILLER_24_27
*553 FILLER_24_277
*554 FILLER_24_289
*555 FILLER_24_29
*556 FILLER_24_297
*557 FILLER_24_3
*558 FILLER_24_41
*559 FILLER_24_53
*560 FILLER_24_65
*561 FILLER_24_77
*562 FILLER_24_83
*563 FILLER_24_85
*564 FILLER_24_97
*565 FILLER_25_105
*566 FILLER_25_111
*567 FILLER_25_113
*568 FILLER_25_125
*569 FILLER_25_137
*570 FILLER_25_149
*571 FILLER_25_15
*572 FILLER_25_161
*573 FILLER_25_167
*574 FILLER_25_169
*575 FILLER_25_181
*576 FILLER_25_193
*577 FILLER_25_205
*578 FILLER_25_217
*579 FILLER_25_223
*580 FILLER_25_225
*581 FILLER_25_237
*582 FILLER_25_249
*583 FILLER_25_261
*584 FILLER_25_27
*585 FILLER_25_273
*586 FILLER_25_279
*587 FILLER_25_281
*588 FILLER_25_293
*589 FILLER_25_3
*590 FILLER_25_39
*591 FILLER_25_51
*592 FILLER_25_55
*593 FILLER_25_57
*594 FILLER_25_69
*595 FILLER_25_81
*596 FILLER_25_93
*597 FILLER_26_109
*598 FILLER_26_121
*599 FILLER_26_133
*600 FILLER_26_139
*601 FILLER_26_141
*602 FILLER_26_15
*603 FILLER_26_153
*604 FILLER_26_165
*605 FILLER_26_177
*606 FILLER_26_189
*607 FILLER_26_195
*608 FILLER_26_197
*609 FILLER_26_209
*610 FILLER_26_221
*611 FILLER_26_233
*612 FILLER_26_245
*613 FILLER_26_251
*614 FILLER_26_253
*615 FILLER_26_265
*616 FILLER_26_27
*617 FILLER_26_277
*618 FILLER_26_289
*619 FILLER_26_29
*620 FILLER_26_297
*621 FILLER_26_3
*622 FILLER_26_41
*623 FILLER_26_53
*624 FILLER_26_65
*625 FILLER_26_77
*626 FILLER_26_83
*627 FILLER_26_85
*628 FILLER_26_97
*629 FILLER_27_105
*630 FILLER_27_111
*631 FILLER_27_113
*632 FILLER_27_125
*633 FILLER_27_137
*634 FILLER_27_149
*635 FILLER_27_161
*636 FILLER_27_167
*637 FILLER_27_169
*638 FILLER_27_181
*639 FILLER_27_193
*640 FILLER_27_20
*641 FILLER_27_205
*642 FILLER_27_217
*643 FILLER_27_223
*644 FILLER_27_225
*645 FILLER_27_237
*646 FILLER_27_249
*647 FILLER_27_261
*648 FILLER_27_273
*649 FILLER_27_279
*650 FILLER_27_281
*651 FILLER_27_293
*652 FILLER_27_3
*653 FILLER_27_32
*654 FILLER_27_44
*655 FILLER_27_57
*656 FILLER_27_69
*657 FILLER_27_8
*658 FILLER_27_81
*659 FILLER_27_93
*660 FILLER_28_109
*661 FILLER_28_121
*662 FILLER_28_133
*663 FILLER_28_139
*664 FILLER_28_141
*665 FILLER_28_153
*666 FILLER_28_165
*667 FILLER_28_177
*668 FILLER_28_189
*669 FILLER_28_195
*670 FILLER_28_197
*671 FILLER_28_20
*672 FILLER_28_209
*673 FILLER_28_221
*674 FILLER_28_233
*675 FILLER_28_245
*676 FILLER_28_251
*677 FILLER_28_253
*678 FILLER_28_265
*679 FILLER_28_277
*680 FILLER_28_289
*681 FILLER_28_29
*682 FILLER_28_297
*683 FILLER_28_3
*684 FILLER_28_41
*685 FILLER_28_53
*686 FILLER_28_65
*687 FILLER_28_77
*688 FILLER_28_8
*689 FILLER_28_83
*690 FILLER_28_85
*691 FILLER_28_97
*692 FILLER_29_105
*693 FILLER_29_111
*694 FILLER_29_113
*695 FILLER_29_125
*696 FILLER_29_137
*697 FILLER_29_149
*698 FILLER_29_161
*699 FILLER_29_167
*700 FILLER_29_169
*701 FILLER_29_181
*702 FILLER_29_193
*703 FILLER_29_205
*704 FILLER_29_21
*705 FILLER_29_217
*706 FILLER_29_223
*707 FILLER_29_225
*708 FILLER_29_237
*709 FILLER_29_249
*710 FILLER_29_261
*711 FILLER_29_273
*712 FILLER_29_279
*713 FILLER_29_281
*714 FILLER_29_293
*715 FILLER_29_3
*716 FILLER_29_33
*717 FILLER_29_45
*718 FILLER_29_53
*719 FILLER_29_57
*720 FILLER_29_69
*721 FILLER_29_81
*722 FILLER_29_9
*723 FILLER_29_93
*724 FILLER_2_109
*725 FILLER_2_121
*726 FILLER_2_133
*727 FILLER_2_139
*728 FILLER_2_141
*729 FILLER_2_15
*730 FILLER_2_153
*731 FILLER_2_165
*732 FILLER_2_177
*733 FILLER_2_189
*734 FILLER_2_195
*735 FILLER_2_197
*736 FILLER_2_209
*737 FILLER_2_221
*738 FILLER_2_233
*739 FILLER_2_245
*740 FILLER_2_251
*741 FILLER_2_253
*742 FILLER_2_265
*743 FILLER_2_27
*744 FILLER_2_277
*745 FILLER_2_289
*746 FILLER_2_29
*747 FILLER_2_297
*748 FILLER_2_3
*749 FILLER_2_41
*750 FILLER_2_53
*751 FILLER_2_65
*752 FILLER_2_77
*753 FILLER_2_83
*754 FILLER_2_85
*755 FILLER_2_97
*756 FILLER_30_109
*757 FILLER_30_121
*758 FILLER_30_133
*759 FILLER_30_139
*760 FILLER_30_141
*761 FILLER_30_15
*762 FILLER_30_153
*763 FILLER_30_165
*764 FILLER_30_177
*765 FILLER_30_189
*766 FILLER_30_195
*767 FILLER_30_197
*768 FILLER_30_209
*769 FILLER_30_221
*770 FILLER_30_233
*771 FILLER_30_245
*772 FILLER_30_251
*773 FILLER_30_253
*774 FILLER_30_265
*775 FILLER_30_27
*776 FILLER_30_277
*777 FILLER_30_289
*778 FILLER_30_29
*779 FILLER_30_297
*780 FILLER_30_3
*781 FILLER_30_41
*782 FILLER_30_53
*783 FILLER_30_65
*784 FILLER_30_77
*785 FILLER_30_83
*786 FILLER_30_85
*787 FILLER_30_97
*788 FILLER_31_105
*789 FILLER_31_111
*790 FILLER_31_113
*791 FILLER_31_125
*792 FILLER_31_137
*793 FILLER_31_149
*794 FILLER_31_161
*795 FILLER_31_167
*796 FILLER_31_169
*797 FILLER_31_181
*798 FILLER_31_193
*799 FILLER_31_20
*800 FILLER_31_205
*801 FILLER_31_217
*802 FILLER_31_223
*803 FILLER_31_225
*804 FILLER_31_237
*805 FILLER_31_249
*806 FILLER_31_261
*807 FILLER_31_273
*808 FILLER_31_279
*809 FILLER_31_281
*810 FILLER_31_293
*811 FILLER_31_3
*812 FILLER_31_32
*813 FILLER_31_44
*814 FILLER_31_57
*815 FILLER_31_69
*816 FILLER_31_8
*817 FILLER_31_81
*818 FILLER_31_93
*819 FILLER_32_109
*820 FILLER_32_121
*821 FILLER_32_133
*822 FILLER_32_139
*823 FILLER_32_141
*824 FILLER_32_15
*825 FILLER_32_153
*826 FILLER_32_165
*827 FILLER_32_177
*828 FILLER_32_189
*829 FILLER_32_195
*830 FILLER_32_197
*831 FILLER_32_209
*832 FILLER_32_221
*833 FILLER_32_233
*834 FILLER_32_245
*835 FILLER_32_251
*836 FILLER_32_253
*837 FILLER_32_265
*838 FILLER_32_27
*839 FILLER_32_277
*840 FILLER_32_289
*841 FILLER_32_29
*842 FILLER_32_297
*843 FILLER_32_3
*844 FILLER_32_41
*845 FILLER_32_53
*846 FILLER_32_65
*847 FILLER_32_77
*848 FILLER_32_83
*849 FILLER_32_85
*850 FILLER_32_97
*851 FILLER_33_105
*852 FILLER_33_111
*853 FILLER_33_113
*854 FILLER_33_125
*855 FILLER_33_137
*856 FILLER_33_149
*857 FILLER_33_15
*858 FILLER_33_161
*859 FILLER_33_167
*860 FILLER_33_169
*861 FILLER_33_181
*862 FILLER_33_193
*863 FILLER_33_205
*864 FILLER_33_217
*865 FILLER_33_223
*866 FILLER_33_225
*867 FILLER_33_237
*868 FILLER_33_249
*869 FILLER_33_261
*870 FILLER_33_27
*871 FILLER_33_273
*872 FILLER_33_279
*873 FILLER_33_281
*874 FILLER_33_293
*875 FILLER_33_3
*876 FILLER_33_39
*877 FILLER_33_51
*878 FILLER_33_55
*879 FILLER_33_57
*880 FILLER_33_69
*881 FILLER_33_81
*882 FILLER_33_93
*883 FILLER_34_109
*884 FILLER_34_121
*885 FILLER_34_133
*886 FILLER_34_139
*887 FILLER_34_141
*888 FILLER_34_15
*889 FILLER_34_153
*890 FILLER_34_165
*891 FILLER_34_177
*892 FILLER_34_189
*893 FILLER_34_195
*894 FILLER_34_197
*895 FILLER_34_209
*896 FILLER_34_221
*897 FILLER_34_233
*898 FILLER_34_245
*899 FILLER_34_251
*900 FILLER_34_253
*901 FILLER_34_265
*902 FILLER_34_27
*903 FILLER_34_277
*904 FILLER_34_289
*905 FILLER_34_29
*906 FILLER_34_297
*907 FILLER_34_3
*908 FILLER_34_41
*909 FILLER_34_53
*910 FILLER_34_65
*911 FILLER_34_77
*912 FILLER_34_83
*913 FILLER_34_85
*914 FILLER_34_97
*915 FILLER_35_105
*916 FILLER_35_111
*917 FILLER_35_113
*918 FILLER_35_125
*919 FILLER_35_137
*920 FILLER_35_149
*921 FILLER_35_15
*922 FILLER_35_161
*923 FILLER_35_167
*924 FILLER_35_169
*925 FILLER_35_181
*926 FILLER_35_193
*927 FILLER_35_205
*928 FILLER_35_217
*929 FILLER_35_223
*930 FILLER_35_225
*931 FILLER_35_237
*932 FILLER_35_249
*933 FILLER_35_261
*934 FILLER_35_27
*935 FILLER_35_273
*936 FILLER_35_279
*937 FILLER_35_281
*938 FILLER_35_293
*939 FILLER_35_3
*940 FILLER_35_39
*941 FILLER_35_51
*942 FILLER_35_55
*943 FILLER_35_57
*944 FILLER_35_69
*945 FILLER_35_81
*946 FILLER_35_93
*947 FILLER_36_109
*948 FILLER_36_121
*949 FILLER_36_133
*950 FILLER_36_139
*951 FILLER_36_141
*952 FILLER_36_15
*953 FILLER_36_153
*954 FILLER_36_165
*955 FILLER_36_177
*956 FILLER_36_189
*957 FILLER_36_195
*958 FILLER_36_197
*959 FILLER_36_209
*960 FILLER_36_221
*961 FILLER_36_233
*962 FILLER_36_245
*963 FILLER_36_251
*964 FILLER_36_253
*965 FILLER_36_265
*966 FILLER_36_27
*967 FILLER_36_277
*968 FILLER_36_289
*969 FILLER_36_29
*970 FILLER_36_297
*971 FILLER_36_3
*972 FILLER_36_41
*973 FILLER_36_53
*974 FILLER_36_65
*975 FILLER_36_77
*976 FILLER_36_83
*977 FILLER_36_85
*978 FILLER_36_97
*979 FILLER_37_105
*980 FILLER_37_111
*981 FILLER_37_113
*982 FILLER_37_125
*983 FILLER_37_137
*984 FILLER_37_149
*985 FILLER_37_15
*986 FILLER_37_161
*987 FILLER_37_167
*988 FILLER_37_169
*989 FILLER_37_181
*990 FILLER_37_193
*991 FILLER_37_205
*992 FILLER_37_217
*993 FILLER_37_223
*994 FILLER_37_225
*995 FILLER_37_237
*996 FILLER_37_249
*997 FILLER_37_261
*998 FILLER_37_27
*999 FILLER_37_273
*1000 FILLER_37_279
*1001 FILLER_37_281
*1002 FILLER_37_293
*1003 FILLER_37_3
*1004 FILLER_37_39
*1005 FILLER_37_51
*1006 FILLER_37_55
*1007 FILLER_37_57
*1008 FILLER_37_69
*1009 FILLER_37_81
*1010 FILLER_37_93
*1011 FILLER_38_109
*1012 FILLER_38_121
*1013 FILLER_38_133
*1014 FILLER_38_139
*1015 FILLER_38_141
*1016 FILLER_38_15
*1017 FILLER_38_153
*1018 FILLER_38_165
*1019 FILLER_38_177
*1020 FILLER_38_189
*1021 FILLER_38_195
*1022 FILLER_38_197
*1023 FILLER_38_209
*1024 FILLER_38_221
*1025 FILLER_38_233
*1026 FILLER_38_245
*1027 FILLER_38_251
*1028 FILLER_38_253
*1029 FILLER_38_265
*1030 FILLER_38_27
*1031 FILLER_38_277
*1032 FILLER_38_289
*1033 FILLER_38_29
*1034 FILLER_38_297
*1035 FILLER_38_3
*1036 FILLER_38_41
*1037 FILLER_38_53
*1038 FILLER_38_65
*1039 FILLER_38_77
*1040 FILLER_38_83
*1041 FILLER_38_85
*1042 FILLER_38_97
*1043 FILLER_39_105
*1044 FILLER_39_111
*1045 FILLER_39_113
*1046 FILLER_39_125
*1047 FILLER_39_137
*1048 FILLER_39_149
*1049 FILLER_39_161
*1050 FILLER_39_167
*1051 FILLER_39_169
*1052 FILLER_39_181
*1053 FILLER_39_193
*1054 FILLER_39_20
*1055 FILLER_39_205
*1056 FILLER_39_217
*1057 FILLER_39_223
*1058 FILLER_39_225
*1059 FILLER_39_237
*1060 FILLER_39_249
*1061 FILLER_39_261
*1062 FILLER_39_273
*1063 FILLER_39_279
*1064 FILLER_39_281
*1065 FILLER_39_293
*1066 FILLER_39_3
*1067 FILLER_39_32
*1068 FILLER_39_44
*1069 FILLER_39_57
*1070 FILLER_39_69
*1071 FILLER_39_8
*1072 FILLER_39_81
*1073 FILLER_39_93
*1074 FILLER_3_105
*1075 FILLER_3_111
*1076 FILLER_3_113
*1077 FILLER_3_125
*1078 FILLER_3_137
*1079 FILLER_3_149
*1080 FILLER_3_15
*1081 FILLER_3_161
*1082 FILLER_3_167
*1083 FILLER_3_169
*1084 FILLER_3_181
*1085 FILLER_3_193
*1086 FILLER_3_205
*1087 FILLER_3_217
*1088 FILLER_3_223
*1089 FILLER_3_225
*1090 FILLER_3_237
*1091 FILLER_3_249
*1092 FILLER_3_261
*1093 FILLER_3_27
*1094 FILLER_3_273
*1095 FILLER_3_279
*1096 FILLER_3_281
*1097 FILLER_3_293
*1098 FILLER_3_3
*1099 FILLER_3_39
*1100 FILLER_3_51
*1101 FILLER_3_55
*1102 FILLER_3_57
*1103 FILLER_3_69
*1104 FILLER_3_81
*1105 FILLER_3_93
*1106 FILLER_40_109
*1107 FILLER_40_121
*1108 FILLER_40_133
*1109 FILLER_40_139
*1110 FILLER_40_141
*1111 FILLER_40_15
*1112 FILLER_40_153
*1113 FILLER_40_165
*1114 FILLER_40_177
*1115 FILLER_40_189
*1116 FILLER_40_195
*1117 FILLER_40_197
*1118 FILLER_40_209
*1119 FILLER_40_221
*1120 FILLER_40_233
*1121 FILLER_40_245
*1122 FILLER_40_251
*1123 FILLER_40_253
*1124 FILLER_40_265
*1125 FILLER_40_27
*1126 FILLER_40_277
*1127 FILLER_40_289
*1128 FILLER_40_29
*1129 FILLER_40_297
*1130 FILLER_40_3
*1131 FILLER_40_41
*1132 FILLER_40_53
*1133 FILLER_40_65
*1134 FILLER_40_77
*1135 FILLER_40_83
*1136 FILLER_40_85
*1137 FILLER_40_97
*1138 FILLER_41_105
*1139 FILLER_41_111
*1140 FILLER_41_113
*1141 FILLER_41_125
*1142 FILLER_41_137
*1143 FILLER_41_149
*1144 FILLER_41_15
*1145 FILLER_41_161
*1146 FILLER_41_167
*1147 FILLER_41_169
*1148 FILLER_41_181
*1149 FILLER_41_193
*1150 FILLER_41_205
*1151 FILLER_41_217
*1152 FILLER_41_223
*1153 FILLER_41_225
*1154 FILLER_41_237
*1155 FILLER_41_249
*1156 FILLER_41_261
*1157 FILLER_41_27
*1158 FILLER_41_273
*1159 FILLER_41_279
*1160 FILLER_41_281
*1161 FILLER_41_293
*1162 FILLER_41_3
*1163 FILLER_41_39
*1164 FILLER_41_51
*1165 FILLER_41_55
*1166 FILLER_41_57
*1167 FILLER_41_69
*1168 FILLER_41_81
*1169 FILLER_41_93
*1170 FILLER_42_109
*1171 FILLER_42_121
*1172 FILLER_42_133
*1173 FILLER_42_139
*1174 FILLER_42_141
*1175 FILLER_42_153
*1176 FILLER_42_165
*1177 FILLER_42_177
*1178 FILLER_42_189
*1179 FILLER_42_195
*1180 FILLER_42_197
*1181 FILLER_42_20
*1182 FILLER_42_209
*1183 FILLER_42_221
*1184 FILLER_42_233
*1185 FILLER_42_245
*1186 FILLER_42_251
*1187 FILLER_42_253
*1188 FILLER_42_265
*1189 FILLER_42_277
*1190 FILLER_42_289
*1191 FILLER_42_29
*1192 FILLER_42_297
*1193 FILLER_42_3
*1194 FILLER_42_41
*1195 FILLER_42_53
*1196 FILLER_42_65
*1197 FILLER_42_77
*1198 FILLER_42_8
*1199 FILLER_42_83
*1200 FILLER_42_85
*1201 FILLER_42_97
*1202 FILLER_43_105
*1203 FILLER_43_111
*1204 FILLER_43_113
*1205 FILLER_43_125
*1206 FILLER_43_137
*1207 FILLER_43_149
*1208 FILLER_43_15
*1209 FILLER_43_161
*1210 FILLER_43_167
*1211 FILLER_43_169
*1212 FILLER_43_181
*1213 FILLER_43_193
*1214 FILLER_43_205
*1215 FILLER_43_217
*1216 FILLER_43_223
*1217 FILLER_43_225
*1218 FILLER_43_237
*1219 FILLER_43_249
*1220 FILLER_43_261
*1221 FILLER_43_27
*1222 FILLER_43_273
*1223 FILLER_43_279
*1224 FILLER_43_281
*1225 FILLER_43_293
*1226 FILLER_43_3
*1227 FILLER_43_39
*1228 FILLER_43_51
*1229 FILLER_43_55
*1230 FILLER_43_57
*1231 FILLER_43_69
*1232 FILLER_43_81
*1233 FILLER_43_93
*1234 FILLER_44_109
*1235 FILLER_44_121
*1236 FILLER_44_133
*1237 FILLER_44_139
*1238 FILLER_44_141
*1239 FILLER_44_15
*1240 FILLER_44_153
*1241 FILLER_44_165
*1242 FILLER_44_177
*1243 FILLER_44_189
*1244 FILLER_44_195
*1245 FILLER_44_197
*1246 FILLER_44_209
*1247 FILLER_44_221
*1248 FILLER_44_233
*1249 FILLER_44_245
*1250 FILLER_44_251
*1251 FILLER_44_253
*1252 FILLER_44_265
*1253 FILLER_44_27
*1254 FILLER_44_277
*1255 FILLER_44_289
*1256 FILLER_44_29
*1257 FILLER_44_297
*1258 FILLER_44_3
*1259 FILLER_44_41
*1260 FILLER_44_53
*1261 FILLER_44_65
*1262 FILLER_44_77
*1263 FILLER_44_83
*1264 FILLER_44_85
*1265 FILLER_44_97
*1266 FILLER_45_105
*1267 FILLER_45_111
*1268 FILLER_45_113
*1269 FILLER_45_125
*1270 FILLER_45_137
*1271 FILLER_45_149
*1272 FILLER_45_15
*1273 FILLER_45_161
*1274 FILLER_45_167
*1275 FILLER_45_169
*1276 FILLER_45_181
*1277 FILLER_45_193
*1278 FILLER_45_205
*1279 FILLER_45_217
*1280 FILLER_45_223
*1281 FILLER_45_225
*1282 FILLER_45_237
*1283 FILLER_45_249
*1284 FILLER_45_261
*1285 FILLER_45_27
*1286 FILLER_45_273
*1287 FILLER_45_279
*1288 FILLER_45_281
*1289 FILLER_45_293
*1290 FILLER_45_3
*1291 FILLER_45_39
*1292 FILLER_45_51
*1293 FILLER_45_55
*1294 FILLER_45_57
*1295 FILLER_45_69
*1296 FILLER_45_81
*1297 FILLER_45_93
*1298 FILLER_46_109
*1299 FILLER_46_121
*1300 FILLER_46_133
*1301 FILLER_46_139
*1302 FILLER_46_141
*1303 FILLER_46_153
*1304 FILLER_46_165
*1305 FILLER_46_177
*1306 FILLER_46_189
*1307 FILLER_46_195
*1308 FILLER_46_197
*1309 FILLER_46_20
*1310 FILLER_46_209
*1311 FILLER_46_221
*1312 FILLER_46_233
*1313 FILLER_46_245
*1314 FILLER_46_251
*1315 FILLER_46_253
*1316 FILLER_46_265
*1317 FILLER_46_277
*1318 FILLER_46_289
*1319 FILLER_46_29
*1320 FILLER_46_297
*1321 FILLER_46_3
*1322 FILLER_46_41
*1323 FILLER_46_53
*1324 FILLER_46_65
*1325 FILLER_46_77
*1326 FILLER_46_8
*1327 FILLER_46_83
*1328 FILLER_46_85
*1329 FILLER_46_97
*1330 FILLER_47_105
*1331 FILLER_47_111
*1332 FILLER_47_113
*1333 FILLER_47_125
*1334 FILLER_47_137
*1335 FILLER_47_149
*1336 FILLER_47_15
*1337 FILLER_47_161
*1338 FILLER_47_167
*1339 FILLER_47_169
*1340 FILLER_47_181
*1341 FILLER_47_193
*1342 FILLER_47_205
*1343 FILLER_47_217
*1344 FILLER_47_223
*1345 FILLER_47_225
*1346 FILLER_47_237
*1347 FILLER_47_249
*1348 FILLER_47_261
*1349 FILLER_47_27
*1350 FILLER_47_273
*1351 FILLER_47_279
*1352 FILLER_47_281
*1353 FILLER_47_293
*1354 FILLER_47_3
*1355 FILLER_47_39
*1356 FILLER_47_51
*1357 FILLER_47_55
*1358 FILLER_47_57
*1359 FILLER_47_69
*1360 FILLER_47_81
*1361 FILLER_47_93
*1362 FILLER_48_109
*1363 FILLER_48_121
*1364 FILLER_48_133
*1365 FILLER_48_139
*1366 FILLER_48_141
*1367 FILLER_48_15
*1368 FILLER_48_153
*1369 FILLER_48_165
*1370 FILLER_48_177
*1371 FILLER_48_189
*1372 FILLER_48_195
*1373 FILLER_48_197
*1374 FILLER_48_209
*1375 FILLER_48_221
*1376 FILLER_48_233
*1377 FILLER_48_245
*1378 FILLER_48_251
*1379 FILLER_48_253
*1380 FILLER_48_265
*1381 FILLER_48_27
*1382 FILLER_48_277
*1383 FILLER_48_289
*1384 FILLER_48_29
*1385 FILLER_48_297
*1386 FILLER_48_3
*1387 FILLER_48_41
*1388 FILLER_48_53
*1389 FILLER_48_65
*1390 FILLER_48_77
*1391 FILLER_48_83
*1392 FILLER_48_85
*1393 FILLER_48_97
*1394 FILLER_49_105
*1395 FILLER_49_111
*1396 FILLER_49_113
*1397 FILLER_49_125
*1398 FILLER_49_137
*1399 FILLER_49_149
*1400 FILLER_49_15
*1401 FILLER_49_161
*1402 FILLER_49_167
*1403 FILLER_49_169
*1404 FILLER_49_181
*1405 FILLER_49_193
*1406 FILLER_49_205
*1407 FILLER_49_217
*1408 FILLER_49_223
*1409 FILLER_49_225
*1410 FILLER_49_237
*1411 FILLER_49_249
*1412 FILLER_49_261
*1413 FILLER_49_27
*1414 FILLER_49_273
*1415 FILLER_49_279
*1416 FILLER_49_281
*1417 FILLER_49_293
*1418 FILLER_49_3
*1419 FILLER_49_39
*1420 FILLER_49_51
*1421 FILLER_49_55
*1422 FILLER_49_57
*1423 FILLER_49_69
*1424 FILLER_49_81
*1425 FILLER_49_93
*1426 FILLER_4_109
*1427 FILLER_4_121
*1428 FILLER_4_133
*1429 FILLER_4_139
*1430 FILLER_4_141
*1431 FILLER_4_15
*1432 FILLER_4_153
*1433 FILLER_4_165
*1434 FILLER_4_177
*1435 FILLER_4_189
*1436 FILLER_4_195
*1437 FILLER_4_197
*1438 FILLER_4_209
*1439 FILLER_4_221
*1440 FILLER_4_233
*1441 FILLER_4_245
*1442 FILLER_4_251
*1443 FILLER_4_253
*1444 FILLER_4_265
*1445 FILLER_4_27
*1446 FILLER_4_277
*1447 FILLER_4_289
*1448 FILLER_4_29
*1449 FILLER_4_297
*1450 FILLER_4_3
*1451 FILLER_4_41
*1452 FILLER_4_53
*1453 FILLER_4_65
*1454 FILLER_4_77
*1455 FILLER_4_83
*1456 FILLER_4_85
*1457 FILLER_4_97
*1458 FILLER_50_109
*1459 FILLER_50_121
*1460 FILLER_50_133
*1461 FILLER_50_139
*1462 FILLER_50_141
*1463 FILLER_50_153
*1464 FILLER_50_165
*1465 FILLER_50_177
*1466 FILLER_50_189
*1467 FILLER_50_195
*1468 FILLER_50_197
*1469 FILLER_50_20
*1470 FILLER_50_209
*1471 FILLER_50_221
*1472 FILLER_50_233
*1473 FILLER_50_245
*1474 FILLER_50_251
*1475 FILLER_50_253
*1476 FILLER_50_265
*1477 FILLER_50_277
*1478 FILLER_50_289
*1479 FILLER_50_29
*1480 FILLER_50_297
*1481 FILLER_50_3
*1482 FILLER_50_41
*1483 FILLER_50_53
*1484 FILLER_50_65
*1485 FILLER_50_77
*1486 FILLER_50_8
*1487 FILLER_50_83
*1488 FILLER_50_85
*1489 FILLER_50_97
*1490 FILLER_51_105
*1491 FILLER_51_111
*1492 FILLER_51_113
*1493 FILLER_51_125
*1494 FILLER_51_137
*1495 FILLER_51_149
*1496 FILLER_51_15
*1497 FILLER_51_161
*1498 FILLER_51_167
*1499 FILLER_51_169
*1500 FILLER_51_181
*1501 FILLER_51_193
*1502 FILLER_51_205
*1503 FILLER_51_217
*1504 FILLER_51_223
*1505 FILLER_51_225
*1506 FILLER_51_237
*1507 FILLER_51_249
*1508 FILLER_51_261
*1509 FILLER_51_27
*1510 FILLER_51_273
*1511 FILLER_51_279
*1512 FILLER_51_281
*1513 FILLER_51_293
*1514 FILLER_51_3
*1515 FILLER_51_39
*1516 FILLER_51_51
*1517 FILLER_51_55
*1518 FILLER_51_57
*1519 FILLER_51_69
*1520 FILLER_51_81
*1521 FILLER_51_93
*1522 FILLER_52_109
*1523 FILLER_52_121
*1524 FILLER_52_133
*1525 FILLER_52_139
*1526 FILLER_52_141
*1527 FILLER_52_15
*1528 FILLER_52_153
*1529 FILLER_52_165
*1530 FILLER_52_177
*1531 FILLER_52_189
*1532 FILLER_52_195
*1533 FILLER_52_197
*1534 FILLER_52_209
*1535 FILLER_52_221
*1536 FILLER_52_233
*1537 FILLER_52_245
*1538 FILLER_52_251
*1539 FILLER_52_253
*1540 FILLER_52_265
*1541 FILLER_52_27
*1542 FILLER_52_277
*1543 FILLER_52_289
*1544 FILLER_52_29
*1545 FILLER_52_297
*1546 FILLER_52_3
*1547 FILLER_52_41
*1548 FILLER_52_53
*1549 FILLER_52_65
*1550 FILLER_52_77
*1551 FILLER_52_83
*1552 FILLER_52_85
*1553 FILLER_52_97
*1554 FILLER_53_105
*1555 FILLER_53_111
*1556 FILLER_53_113
*1557 FILLER_53_125
*1558 FILLER_53_137
*1559 FILLER_53_149
*1560 FILLER_53_15
*1561 FILLER_53_161
*1562 FILLER_53_167
*1563 FILLER_53_169
*1564 FILLER_53_181
*1565 FILLER_53_193
*1566 FILLER_53_205
*1567 FILLER_53_217
*1568 FILLER_53_223
*1569 FILLER_53_225
*1570 FILLER_53_237
*1571 FILLER_53_249
*1572 FILLER_53_261
*1573 FILLER_53_27
*1574 FILLER_53_273
*1575 FILLER_53_279
*1576 FILLER_53_281
*1577 FILLER_53_293
*1578 FILLER_53_3
*1579 FILLER_53_39
*1580 FILLER_53_51
*1581 FILLER_53_55
*1582 FILLER_53_57
*1583 FILLER_53_69