*SPEF "ieee 1481-1999"
*DESIGN "user_module_363176375876859905"
*DATE "11:11:11 Fri 11 11, 1111"
*VENDOR "OpenRCX"
*PROGRAM "Parallel Extraction"
*VERSION "1.0"
*DESIGN_FLOW "NAME_SCOPE LOCAL" "PIN_CAP NONE"
*DIVIDER /
*DELIMITER :
*BUS_DELIMITER []
*T_UNIT 1 NS
*C_UNIT 1 PF
*R_UNIT 1 OHM
*L_UNIT 1 HENRY

*NAME_MAP
*1 io_in[0]
*2 io_in[1]
*3 io_in[2]
*4 io_in[3]
*5 io_in[4]
*6 io_in[5]
*7 io_in[6]
*8 io_in[7]
*9 io_out[0]
*10 io_out[1]
*11 io_out[2]
*12 net1
*13 net2
*14 net3
*15 net4
*16 net5
*19 _00_
*20 _01_
*21 and1\.b
*22 and1\.out
*23 and2\.out
*24 and4\.b
*25 and4\.out
*26 flop1\.d
*27 flop1\.q
*28 flop10\.clk
*29 flop10\.d
*30 flop10\.q
*31 flop11\.d
*32 flop11\.q
*33 flop12\.d
*34 flop12\.q
*35 flop13\.d
*36 flop13\.q
*37 flop14\.d
*38 flop14\.q
*39 flop15\.d
*40 flop15\.q
*41 flop16\.d
*42 flop16\.q
*43 flop2\.d
*44 flop2\.q
*45 flop3\.d
*46 flop3\.q
*47 flop4\.d
*48 flop4\.q
*49 flop5\.d
*50 flop5\.q
*51 flop6\.d
*52 flop6\.q
*53 flop7\.d
*54 flop7\.q
*55 flop8\.d
*56 flop8\.q
*57 flop9\.d
*58 net6
*59 FILLER_0_10
*60 FILLER_0_109
*61 FILLER_0_113
*62 FILLER_0_125
*63 FILLER_0_137
*64 FILLER_0_141
*65 FILLER_0_153
*66 FILLER_0_165
*67 FILLER_0_169
*68 FILLER_0_181
*69 FILLER_0_193
*70 FILLER_0_197
*71 FILLER_0_209
*72 FILLER_0_22
*73 FILLER_0_221
*74 FILLER_0_225
*75 FILLER_0_237
*76 FILLER_0_249
*77 FILLER_0_253
*78 FILLER_0_265
*79 FILLER_0_277
*80 FILLER_0_281
*81 FILLER_0_29
*82 FILLER_0_293
*83 FILLER_0_3
*84 FILLER_0_41
*85 FILLER_0_53
*86 FILLER_0_57
*87 FILLER_0_69
*88 FILLER_0_81
*89 FILLER_0_85
*90 FILLER_0_97
*91 FILLER_10_109
*92 FILLER_10_121
*93 FILLER_10_133
*94 FILLER_10_139
*95 FILLER_10_141
*96 FILLER_10_153
*97 FILLER_10_165
*98 FILLER_10_177
*99 FILLER_10_189
*100 FILLER_10_195
*101 FILLER_10_197
*102 FILLER_10_209
*103 FILLER_10_21
*104 FILLER_10_221
*105 FILLER_10_233
*106 FILLER_10_245
*107 FILLER_10_251
*108 FILLER_10_253
*109 FILLER_10_265
*110 FILLER_10_27
*111 FILLER_10_277
*112 FILLER_10_289
*113 FILLER_10_29
*114 FILLER_10_297
*115 FILLER_10_3
*116 FILLER_10_41
*117 FILLER_10_53
*118 FILLER_10_65
*119 FILLER_10_77
*120 FILLER_10_83
*121 FILLER_10_85
*122 FILLER_10_97
*123 FILLER_11_105
*124 FILLER_11_111
*125 FILLER_11_113
*126 FILLER_11_12
*127 FILLER_11_125
*128 FILLER_11_137
*129 FILLER_11_149
*130 FILLER_11_161
*131 FILLER_11_167
*132 FILLER_11_169
*133 FILLER_11_181
*134 FILLER_11_193
*135 FILLER_11_205
*136 FILLER_11_217
*137 FILLER_11_223
*138 FILLER_11_225
*139 FILLER_11_237
*140 FILLER_11_24
*141 FILLER_11_249
*142 FILLER_11_261
*143 FILLER_11_273
*144 FILLER_11_279
*145 FILLER_11_281
*146 FILLER_11_293
*147 FILLER_11_3
*148 FILLER_11_36
*149 FILLER_11_48
*150 FILLER_11_57
*151 FILLER_11_69
*152 FILLER_11_7
*153 FILLER_11_81
*154 FILLER_11_93
*155 FILLER_12_109
*156 FILLER_12_121
*157 FILLER_12_133
*158 FILLER_12_139
*159 FILLER_12_141
*160 FILLER_12_153
*161 FILLER_12_165
*162 FILLER_12_177
*163 FILLER_12_189
*164 FILLER_12_195
*165 FILLER_12_197
*166 FILLER_12_209
*167 FILLER_12_21
*168 FILLER_12_221
*169 FILLER_12_233
*170 FILLER_12_245
*171 FILLER_12_251
*172 FILLER_12_253
*173 FILLER_12_265
*174 FILLER_12_27
*175 FILLER_12_277
*176 FILLER_12_289
*177 FILLER_12_29
*178 FILLER_12_297
*179 FILLER_12_3
*180 FILLER_12_41
*181 FILLER_12_53
*182 FILLER_12_65
*183 FILLER_12_77
*184 FILLER_12_83
*185 FILLER_12_85
*186 FILLER_12_97
*187 FILLER_13_105
*188 FILLER_13_111
*189 FILLER_13_113
*190 FILLER_13_125
*191 FILLER_13_137
*192 FILLER_13_149
*193 FILLER_13_161
*194 FILLER_13_167
*195 FILLER_13_169
*196 FILLER_13_181
*197 FILLER_13_193
*198 FILLER_13_205
*199 FILLER_13_21
*200 FILLER_13_217
*201 FILLER_13_223
*202 FILLER_13_225
*203 FILLER_13_237
*204 FILLER_13_249
*205 FILLER_13_261
*206 FILLER_13_273
*207 FILLER_13_279
*208 FILLER_13_281
*209 FILLER_13_293
*210 FILLER_13_3
*211 FILLER_13_33
*212 FILLER_13_45
*213 FILLER_13_53
*214 FILLER_13_57
*215 FILLER_13_69
*216 FILLER_13_81
*217 FILLER_13_93
*218 FILLER_14_109
*219 FILLER_14_12
*220 FILLER_14_121
*221 FILLER_14_133
*222 FILLER_14_139
*223 FILLER_14_141
*224 FILLER_14_153
*225 FILLER_14_165
*226 FILLER_14_177
*227 FILLER_14_189
*228 FILLER_14_195
*229 FILLER_14_197
*230 FILLER_14_20
*231 FILLER_14_209
*232 FILLER_14_221
*233 FILLER_14_233
*234 FILLER_14_245
*235 FILLER_14_251
*236 FILLER_14_253
*237 FILLER_14_265
*238 FILLER_14_277
*239 FILLER_14_289
*240 FILLER_14_29
*241 FILLER_14_297
*242 FILLER_14_3
*243 FILLER_14_41
*244 FILLER_14_53
*245 FILLER_14_65
*246 FILLER_14_7
*247 FILLER_14_77
*248 FILLER_14_83
*249 FILLER_14_85
*250 FILLER_14_97
*251 FILLER_15_105
*252 FILLER_15_111
*253 FILLER_15_113
*254 FILLER_15_125
*255 FILLER_15_137
*256 FILLER_15_149
*257 FILLER_15_161
*258 FILLER_15_167
*259 FILLER_15_169
*260 FILLER_15_181
*261 FILLER_15_193
*262 FILLER_15_205
*263 FILLER_15_21
*264 FILLER_15_217
*265 FILLER_15_223
*266 FILLER_15_225
*267 FILLER_15_237
*268 FILLER_15_249
*269 FILLER_15_261
*270 FILLER_15_273
*271 FILLER_15_279
*272 FILLER_15_281
*273 FILLER_15_293
*274 FILLER_15_3
*275 FILLER_15_33
*276 FILLER_15_45
*277 FILLER_15_53
*278 FILLER_15_57
*279 FILLER_15_69
*280 FILLER_15_81
*281 FILLER_15_93
*282 FILLER_16_109
*283 FILLER_16_121
*284 FILLER_16_13
*285 FILLER_16_133
*286 FILLER_16_139
*287 FILLER_16_141
*288 FILLER_16_153
*289 FILLER_16_165
*290 FILLER_16_177
*291 FILLER_16_189
*292 FILLER_16_195
*293 FILLER_16_197
*294 FILLER_16_209
*295 FILLER_16_221
*296 FILLER_16_233
*297 FILLER_16_245
*298 FILLER_16_25
*299 FILLER_16_251
*300 FILLER_16_253
*301 FILLER_16_265
*302 FILLER_16_277
*303 FILLER_16_289
*304 FILLER_16_29
*305 FILLER_16_297
*306 FILLER_16_3
*307 FILLER_16_41
*308 FILLER_16_53
*309 FILLER_16_65
*310 FILLER_16_77
*311 FILLER_16_83
*312 FILLER_16_85
*313 FILLER_16_97
*314 FILLER_17_105
*315 FILLER_17_111
*316 FILLER_17_113
*317 FILLER_17_125
*318 FILLER_17_137
*319 FILLER_17_149
*320 FILLER_17_161
*321 FILLER_17_167
*322 FILLER_17_169
*323 FILLER_17_181
*324 FILLER_17_193
*325 FILLER_17_205
*326 FILLER_17_217
*327 FILLER_17_22
*328 FILLER_17_223
*329 FILLER_17_225
*330 FILLER_17_237
*331 FILLER_17_249
*332 FILLER_17_261
*333 FILLER_17_273
*334 FILLER_17_279
*335 FILLER_17_281
*336 FILLER_17_293
*337 FILLER_17_3
*338 FILLER_17_34
*339 FILLER_17_46
*340 FILLER_17_54
*341 FILLER_17_57
*342 FILLER_17_69
*343 FILLER_17_81
*344 FILLER_17_93
*345 FILLER_18_109
*346 FILLER_18_121
*347 FILLER_18_133
*348 FILLER_18_139
*349 FILLER_18_141
*350 FILLER_18_153
*351 FILLER_18_165
*352 FILLER_18_177
*353 FILLER_18_189
*354 FILLER_18_195
*355 FILLER_18_197
*356 FILLER_18_209
*357 FILLER_18_22
*358 FILLER_18_221
*359 FILLER_18_233
*360 FILLER_18_245
*361 FILLER_18_251
*362 FILLER_18_253
*363 FILLER_18_265
*364 FILLER_18_277
*365 FILLER_18_289
*366 FILLER_18_29
*367 FILLER_18_297
*368 FILLER_18_3
*369 FILLER_18_41
*370 FILLER_18_53
*371 FILLER_18_65
*372 FILLER_18_77
*373 FILLER_18_83
*374 FILLER_18_85
*375 FILLER_18_97
*376 FILLER_19_105
*377 FILLER_19_111
*378 FILLER_19_113
*379 FILLER_19_12
*380 FILLER_19_125
*381 FILLER_19_137
*382 FILLER_19_149
*383 FILLER_19_161
*384 FILLER_19_167
*385 FILLER_19_169
*386 FILLER_19_181
*387 FILLER_19_193
*388 FILLER_19_20
*389 FILLER_19_205
*390 FILLER_19_217
*391 FILLER_19_223
*392 FILLER_19_225
*393 FILLER_19_237
*394 FILLER_19_249
*395 FILLER_19_261
*396 FILLER_19_273
*397 FILLER_19_279
*398 FILLER_19_281
*399 FILLER_19_293
*400 FILLER_19_3
*401 FILLER_19_32
*402 FILLER_19_44
*403 FILLER_19_57
*404 FILLER_19_69
*405 FILLER_19_7
*406 FILLER_19_81
*407 FILLER_19_93
*408 FILLER_1_105
*409 FILLER_1_111
*410 FILLER_1_113
*411 FILLER_1_125
*412 FILLER_1_137
*413 FILLER_1_149
*414 FILLER_1_161
*415 FILLER_1_167
*416 FILLER_1_169
*417 FILLER_1_181
*418 FILLER_1_193
*419 FILLER_1_205
*420 FILLER_1_21
*421 FILLER_1_217
*422 FILLER_1_223
*423 FILLER_1_225
*424 FILLER_1_237
*425 FILLER_1_249
*426 FILLER_1_261
*427 FILLER_1_273
*428 FILLER_1_279
*429 FILLER_1_281
*430 FILLER_1_293
*431 FILLER_1_3
*432 FILLER_1_33
*433 FILLER_1_45
*434 FILLER_1_53
*435 FILLER_1_57
*436 FILLER_1_69
*437 FILLER_1_81
*438 FILLER_1_93
*439 FILLER_20_109
*440 FILLER_20_121
*441 FILLER_20_133
*442 FILLER_20_139
*443 FILLER_20_141
*444 FILLER_20_153
*445 FILLER_20_165
*446 FILLER_20_177
*447 FILLER_20_189
*448 FILLER_20_195
*449 FILLER_20_197
*450 FILLER_20_209
*451 FILLER_20_21
*452 FILLER_20_221
*453 FILLER_20_233
*454 FILLER_20_245
*455 FILLER_20_251
*456 FILLER_20_253
*457 FILLER_20_265
*458 FILLER_20_27
*459 FILLER_20_277
*460 FILLER_20_289
*461 FILLER_20_29
*462 FILLER_20_297
*463 FILLER_20_3
*464 FILLER_20_41
*465 FILLER_20_53
*466 FILLER_20_65
*467 FILLER_20_77
*468 FILLER_20_83
*469 FILLER_20_85
*470 FILLER_20_97
*471 FILLER_21_105
*472 FILLER_21_111
*473 FILLER_21_113
*474 FILLER_21_125
*475 FILLER_21_137
*476 FILLER_21_149
*477 FILLER_21_161
*478 FILLER_21_167
*479 FILLER_21_169
*480 FILLER_21_181
*481 FILLER_21_193
*482 FILLER_21_205
*483 FILLER_21_21
*484 FILLER_21_217
*485 FILLER_21_223
*486 FILLER_21_225
*487 FILLER_21_237
*488 FILLER_21_249
*489 FILLER_21_261
*490 FILLER_21_273
*491 FILLER_21_279
*492 FILLER_21_281
*493 FILLER_21_293
*494 FILLER_21_3
*495 FILLER_21_33
*496 FILLER_21_45
*497 FILLER_21_53
*498 FILLER_21_57
*499 FILLER_21_69
*500 FILLER_21_81
*501 FILLER_21_93
*502 FILLER_22_109
*503 FILLER_22_12
*504 FILLER_22_121
*505 FILLER_22_133
*506 FILLER_22_139
*507 FILLER_22_141
*508 FILLER_22_153
*509 FILLER_22_165
*510 FILLER_22_177
*511 FILLER_22_189
*512 FILLER_22_195
*513 FILLER_22_197
*514 FILLER_22_20
*515 FILLER_22_209
*516 FILLER_22_221
*517 FILLER_22_233
*518 FILLER_22_245
*519 FILLER_22_251
*520 FILLER_22_253
*521 FILLER_22_265
*522 FILLER_22_277
*523 FILLER_22_289
*524 FILLER_22_29
*525 FILLER_22_297
*526 FILLER_22_3
*527 FILLER_22_41
*528 FILLER_22_53
*529 FILLER_22_65
*530 FILLER_22_7
*531 FILLER_22_77
*532 FILLER_22_83
*533 FILLER_22_85
*534 FILLER_22_97
*535 FILLER_23_105
*536 FILLER_23_111
*537 FILLER_23_113
*538 FILLER_23_125
*539 FILLER_23_137
*540 FILLER_23_149
*541 FILLER_23_161
*542 FILLER_23_167
*543 FILLER_23_169
*544 FILLER_23_181
*545 FILLER_23_193
*546 FILLER_23_205
*547 FILLER_23_21
*548 FILLER_23_217
*549 FILLER_23_223
*550 FILLER_23_225
*551 FILLER_23_237
*552 FILLER_23_249
*553 FILLER_23_261
*554 FILLER_23_273
*555 FILLER_23_279
*556 FILLER_23_281
*557 FILLER_23_293
*558 FILLER_23_3
*559 FILLER_23_33
*560 FILLER_23_45
*561 FILLER_23_53
*562 FILLER_23_57
*563 FILLER_23_69
*564 FILLER_23_81
*565 FILLER_23_93
*566 FILLER_24_109
*567 FILLER_24_11
*568 FILLER_24_121
*569 FILLER_24_133
*570 FILLER_24_139
*571 FILLER_24_141
*572 FILLER_24_153
*573 FILLER_24_165
*574 FILLER_24_177
*575 FILLER_24_189
*576 FILLER_24_195
*577 FILLER_24_197
*578 FILLER_24_209
*579 FILLER_24_221
*580 FILLER_24_23
*581 FILLER_24_233
*582 FILLER_24_245
*583 FILLER_24_251
*584 FILLER_24_253
*585 FILLER_24_265
*586 FILLER_24_27
*587 FILLER_24_277
*588 FILLER_24_289
*589 FILLER_24_29
*590 FILLER_24_297
*591 FILLER_24_3
*592 FILLER_24_41
*593 FILLER_24_53
*594 FILLER_24_65
*595 FILLER_24_77
*596 FILLER_24_83
*597 FILLER_24_85
*598 FILLER_24_97
*599 FILLER_25_105
*600 FILLER_25_111
*601 FILLER_25_113
*602 FILLER_25_125
*603 FILLER_25_137
*604 FILLER_25_149
*605 FILLER_25_161
*606 FILLER_25_167
*607 FILLER_25_169
*608 FILLER_25_181
*609 FILLER_25_193
*610 FILLER_25_205
*611 FILLER_25_21
*612 FILLER_25_217
*613 FILLER_25_223
*614 FILLER_25_225
*615 FILLER_25_237
*616 FILLER_25_249
*617 FILLER_25_261
*618 FILLER_25_273
*619 FILLER_25_279
*620 FILLER_25_281
*621 FILLER_25_293
*622 FILLER_25_3
*623 FILLER_25_33
*624 FILLER_25_45
*625 FILLER_25_53
*626 FILLER_25_57
*627 FILLER_25_69
*628 FILLER_25_81
*629 FILLER_25_93
*630 FILLER_26_109
*631 FILLER_26_121
*632 FILLER_26_133
*633 FILLER_26_139
*634 FILLER_26_141
*635 FILLER_26_15
*636 FILLER_26_153
*637 FILLER_26_165
*638 FILLER_26_177
*639 FILLER_26_189
*640 FILLER_26_195
*641 FILLER_26_197
*642 FILLER_26_209
*643 FILLER_26_221
*644 FILLER_26_233
*645 FILLER_26_245
*646 FILLER_26_251
*647 FILLER_26_253
*648 FILLER_26_265
*649 FILLER_26_27
*650 FILLER_26_277
*651 FILLER_26_289
*652 FILLER_26_29
*653 FILLER_26_297
*654 FILLER_26_3
*655 FILLER_26_41
*656 FILLER_26_53
*657 FILLER_26_65
*658 FILLER_26_77
*659 FILLER_26_83
*660 FILLER_26_85
*661 FILLER_26_97
*662 FILLER_27_105
*663 FILLER_27_111
*664 FILLER_27_113
*665 FILLER_27_125
*666 FILLER_27_137
*667 FILLER_27_149
*668 FILLER_27_15
*669 FILLER_27_161
*670 FILLER_27_167
*671 FILLER_27_169
*672 FILLER_27_181
*673 FILLER_27_193
*674 FILLER_27_205
*675 FILLER_27_217
*676 FILLER_27_223
*677 FILLER_27_225
*678 FILLER_27_237
*679 FILLER_27_249
*680 FILLER_27_261
*681 FILLER_27_27
*682 FILLER_27_273
*683 FILLER_27_279
*684 FILLER_27_281
*685 FILLER_27_293
*686 FILLER_27_3
*687 FILLER_27_39
*688 FILLER_27_51
*689 FILLER_27_55
*690 FILLER_27_57
*691 FILLER_27_69
*692 FILLER_27_81
*693 FILLER_27_93
*694 FILLER_28_109
*695 FILLER_28_121
*696 FILLER_28_133
*697 FILLER_28_139
*698 FILLER_28_141
*699 FILLER_28_15
*700 FILLER_28_153
*701 FILLER_28_165
*702 FILLER_28_177
*703 FILLER_28_189
*704 FILLER_28_195
*705 FILLER_28_197
*706 FILLER_28_209
*707 FILLER_28_221
*708 FILLER_28_233
*709 FILLER_28_245
*710 FILLER_28_251
*711 FILLER_28_253
*712 FILLER_28_265
*713 FILLER_28_27
*714 FILLER_28_277
*715 FILLER_28_289
*716 FILLER_28_29
*717 FILLER_28_297
*718 FILLER_28_3
*719 FILLER_28_41
*720 FILLER_28_53
*721 FILLER_28_65
*722 FILLER_28_77
*723 FILLER_28_83
*724 FILLER_28_85
*725 FILLER_28_97
*726 FILLER_29_105
*727 FILLER_29_111
*728 FILLER_29_113
*729 FILLER_29_125
*730 FILLER_29_137
*731 FILLER_29_149
*732 FILLER_29_15
*733 FILLER_29_161
*734 FILLER_29_167
*735 FILLER_29_169
*736 FILLER_29_181
*737 FILLER_29_193
*738 FILLER_29_205
*739 FILLER_29_217
*740 FILLER_29_223
*741 FILLER_29_225
*742 FILLER_29_237
*743 FILLER_29_249
*744 FILLER_29_261
*745 FILLER_29_27
*746 FILLER_29_273
*747 FILLER_29_279
*748 FILLER_29_281
*749 FILLER_29_293
*750 FILLER_29_3
*751 FILLER_29_39
*752 FILLER_29_51
*753 FILLER_29_55
*754 FILLER_29_57
*755 FILLER_29_69
*756 FILLER_29_81
*757 FILLER_29_93
*758 FILLER_2_109
*759 FILLER_2_121
*760 FILLER_2_133
*761 FILLER_2_139
*762 FILLER_2_141
*763 FILLER_2_153
*764 FILLER_2_165
*765 FILLER_2_177
*766 FILLER_2_189
*767 FILLER_2_195
*768 FILLER_2_197
*769 FILLER_2_209
*770 FILLER_2_221
*771 FILLER_2_233
*772 FILLER_2_24
*773 FILLER_2_245
*774 FILLER_2_251
*775 FILLER_2_253
*776 FILLER_2_265
*777 FILLER_2_277
*778 FILLER_2_289
*779 FILLER_2_29
*780 FILLER_2_297
*781 FILLER_2_3
*782 FILLER_2_41
*783 FILLER_2_53
*784 FILLER_2_65
*785 FILLER_2_7
*786 FILLER_2_77
*787 FILLER_2_83
*788 FILLER_2_85
*789 FILLER_2_97
*790 FILLER_30_109
*791 FILLER_30_121
*792 FILLER_30_133
*793 FILLER_30_139
*794 FILLER_30_141
*795 FILLER_30_153
*796 FILLER_30_165
*797 FILLER_30_177
*798 FILLER_30_189
*799 FILLER_30_195
*800 FILLER_30_197
*801 FILLER_30_209
*802 FILLER_30_21
*803 FILLER_30_221
*804 FILLER_30_233
*805 FILLER_30_245
*806 FILLER_30_251
*807 FILLER_30_253
*808 FILLER_30_265
*809 FILLER_30_27
*810 FILLER_30_277
*811 FILLER_30_289
*812 FILLER_30_29
*813 FILLER_30_297
*814 FILLER_30_3
*815 FILLER_30_41
*816 FILLER_30_53
*817 FILLER_30_65
*818 FILLER_30_77
*819 FILLER_30_83
*820 FILLER_30_85
*821 FILLER_30_9
*822 FILLER_30_97
*823 FILLER_31_105
*824 FILLER_31_111
*825 FILLER_31_113
*826 FILLER_31_125
*827 FILLER_31_137
*828 FILLER_31_149
*829 FILLER_31_161
*830 FILLER_31_167
*831 FILLER_31_169
*832 FILLER_31_181
*833 FILLER_31_193
*834 FILLER_31_205
*835 FILLER_31_21
*836 FILLER_31_217
*837 FILLER_31_223
*838 FILLER_31_225
*839 FILLER_31_237
*840 FILLER_31_249
*841 FILLER_31_261
*842 FILLER_31_273
*843 FILLER_31_279
*844 FILLER_31_281
*845 FILLER_31_293
*846 FILLER_31_3
*847 FILLER_31_33
*848 FILLER_31_45
*849 FILLER_31_53
*850 FILLER_31_57
*851 FILLER_31_69
*852 FILLER_31_81
*853 FILLER_31_93
*854 FILLER_32_109
*855 FILLER_32_121
*856 FILLER_32_133
*857 FILLER_32_139
*858 FILLER_32_141
*859 FILLER_32_153
*860 FILLER_32_165
*861 FILLER_32_17
*862 FILLER_32_177
*863 FILLER_32_189
*864 FILLER_32_195
*865 FILLER_32_197
*866 FILLER_32_209
*867 FILLER_32_221
*868 FILLER_32_233
*869 FILLER_32_24
*870 FILLER_32_245
*871 FILLER_32_251
*872 FILLER_32_253
*873 FILLER_32_265
*874 FILLER_32_277
*875 FILLER_32_289
*876 FILLER_32_29
*877 FILLER_32_297
*878 FILLER_32_3
*879 FILLER_32_41
*880 FILLER_32_53
*881 FILLER_32_65
*882 FILLER_32_77
*883 FILLER_32_83
*884 FILLER_32_85
*885 FILLER_32_97
*886 FILLER_33_105
*887 FILLER_33_111
*888 FILLER_33_113
*889 FILLER_33_125
*890 FILLER_33_137
*891 FILLER_33_149
*892 FILLER_33_161
*893 FILLER_33_167
*894 FILLER_33_169
*895 FILLER_33_181
*896 FILLER_33_193
*897 FILLER_33_205
*898 FILLER_33_21
*899 FILLER_33_217
*900 FILLER_33_223
*901 FILLER_33_225
*902 FILLER_33_237
*903 FILLER_33_249
*904 FILLER_33_261
*905 FILLER_33_273
*906 FILLER_33_279
*907 FILLER_33_281
*908 FILLER_33_293
*909 FILLER_33_3
*910 FILLER_33_33
*911 FILLER_33_45
*912 FILLER_33_53
*913 FILLER_33_57
*914 FILLER_33_69
*915 FILLER_33_81
*916 FILLER_33_93
*917 FILLER_34_109
*918 FILLER_34_121
*919 FILLER_34_133
*920 FILLER_34_139
*921 FILLER_34_141
*922 FILLER_34_15
*923 FILLER_34_153
*924 FILLER_34_165
*925 FILLER_34_177
*926 FILLER_34_189
*927 FILLER_34_195
*928 FILLER_34_197
*929 FILLER_34_209
*930 FILLER_34_22
*931 FILLER_34_221
*932 FILLER_34_233
*933 FILLER_34_245
*934 FILLER_34_251
*935 FILLER_34_253
*936 FILLER_34_265
*937 FILLER_34_277
*938 FILLER_34_289
*939 FILLER_34_29
*940 FILLER_34_297
*941 FILLER_34_3
*942 FILLER_34_41
*943 FILLER_34_53
*944 FILLER_34_65
*945 FILLER_34_77
*946 FILLER_34_83
*947 FILLER_34_85
*948 FILLER_34_97
*949 FILLER_35_105
*950 FILLER_35_111
*951 FILLER_35_113
*952 FILLER_35_125
*953 FILLER_35_137
*954 FILLER_35_149
*955 FILLER_35_161
*956 FILLER_35_167
*957 FILLER_35_169
*958 FILLER_35_181
*959 FILLER_35_193
*960 FILLER_35_205
*961 FILLER_35_21
*962 FILLER_35_217
*963 FILLER_35_223
*964 FILLER_35_225
*965 FILLER_35_237
*966 FILLER_35_249
*967 FILLER_35_261
*968 FILLER_35_273
*969 FILLER_35_279
*970 FILLER_35_281
*971 FILLER_35_293
*972 FILLER_35_3
*973 FILLER_35_33
*974 FILLER_35_45
*975 FILLER_35_53
*976 FILLER_35_57
*977 FILLER_35_69
*978 FILLER_35_81
*979 FILLER_35_9
*980 FILLER_35_93
*981 FILLER_36_109
*982 FILLER_36_11
*983 FILLER_36_121
*984 FILLER_36_133
*985 FILLER_36_139
*986 FILLER_36_141
*987 FILLER_36_153
*988 FILLER_36_165
*989 FILLER_36_177
*990 FILLER_36_189
*991 FILLER_36_195
*992 FILLER_36_197
*993 FILLER_36_209
*994 FILLER_36_221
*995 FILLER_36_23
*996 FILLER_36_233
*997 FILLER_36_245
*998 FILLER_36_251
*999 FILLER_36_253
*1000 FILLER_36_265
*1001 FILLER_36_27
*1002 FILLER_36_277
*1003 FILLER_36_289
*1004 FILLER_36_29
*1005 FILLER_36_297
*1006 FILLER_36_3
*1007 FILLER_36_41
*1008 FILLER_36_53
*1009 FILLER_36_65
*1010 FILLER_36_7
*1011 FILLER_36_77
*1012 FILLER_36_83
*1013 FILLER_36_85
*1014 FILLER_36_97
*1015 FILLER_37_105
*1016 FILLER_37_111
*1017 FILLER_37_113
*1018 FILLER_37_125
*1019 FILLER_37_137
*1020 FILLER_37_149
*1021 FILLER_37_161
*1022 FILLER_37_167
*1023 FILLER_37_169
*1024 FILLER_37_181
*1025 FILLER_37_193
*1026 FILLER_37_205
*1027 FILLER_37_21
*1028 FILLER_37_217
*1029 FILLER_37_223
*1030 FILLER_37_225
*1031 FILLER_37_237
*1032 FILLER_37_249
*1033 FILLER_37_261
*1034 FILLER_37_273
*1035 FILLER_37_279
*1036 FILLER_37_281
*1037 FILLER_37_293
*1038 FILLER_37_3
*1039 FILLER_37_33
*1040 FILLER_37_45
*1041 FILLER_37_53
*1042 FILLER_37_57
*1043 FILLER_37_69
*1044 FILLER_37_81
*1045 FILLER_37_9
*1046 FILLER_37_93
*1047 FILLER_38_109
*1048 FILLER_38_121
*1049 FILLER_38_133
*1050 FILLER_38_139
*1051 FILLER_38_141
*1052 FILLER_38_15
*1053 FILLER_38_153
*1054 FILLER_38_165
*1055 FILLER_38_177
*1056 FILLER_38_189
*1057 FILLER_38_195
*1058 FILLER_38_197
*1059 FILLER_38_209
*1060 FILLER_38_221
*1061 FILLER_38_233
*1062 FILLER_38_245
*1063 FILLER_38_251
*1064 FILLER_38_253
*1065 FILLER_38_265
*1066 FILLER_38_27
*1067 FILLER_38_277
*1068 FILLER_38_289
*1069 FILLER_38_29
*1070 FILLER_38_297
*1071 FILLER_38_3
*1072 FILLER_38_41
*1073 FILLER_38_53
*1074 FILLER_38_65
*1075 FILLER_38_77
*1076 FILLER_38_83
*1077 FILLER_38_85
*1078 FILLER_38_97
*1079 FILLER_39_105
*1080 FILLER_39_111
*1081 FILLER_39_113
*1082 FILLER_39_125
*1083 FILLER_39_137
*1084 FILLER_39_149
*1085 FILLER_39_15
*1086 FILLER_39_161
*1087 FILLER_39_167
*1088 FILLER_39_169
*1089 FILLER_39_181
*1090 FILLER_39_193
*1091 FILLER_39_205
*1092 FILLER_39_217
*1093 FILLER_39_223
*1094 FILLER_39_225
*1095 FILLER_39_237
*1096 FILLER_39_249
*1097 FILLER_39_261
*1098 FILLER_39_27
*1099 FILLER_39_273
*1100 FILLER_39_279
*1101 FILLER_39_281
*1102 FILLER_39_293
*1103 FILLER_39_3
*1104 FILLER_39_39
*1105 FILLER_39_51
*1106 FILLER_39_55
*1107 FILLER_39_57
*1108 FILLER_39_69
*1109 FILLER_39_81
*1110 FILLER_39_93
*1111 FILLER_3_105
*1112 FILLER_3_111
*1113 FILLER_3_113
*1114 FILLER_3_125
*1115 FILLER_3_137
*1116 FILLER_3_14
*1117 FILLER_3_149
*1118 FILLER_3_161
*1119 FILLER_3_167
*1120 FILLER_3_169
*1121 FILLER_3_181
*1122 FILLER_3_193
*1123 FILLER_3_205
*1124 FILLER_3_217
*1125 FILLER_3_22
*1126 FILLER_3_223
*1127 FILLER_3_225
*1128 FILLER_3_237
*1129 FILLER_3_249
*1130 FILLER_3_261
*1131 FILLER_3_273
*1132 FILLER_3_279
*1133 FILLER_3_281
*1134 FILLER_3_293
*1135 FILLER_3_3
*1136 FILLER_3_34
*1137 FILLER_3_46
*1138 FILLER_3_54
*1139 FILLER_3_57
*1140 FILLER_3_69
*1141 FILLER_3_81
*1142 FILLER_3_9
*1143 FILLER_3_93
*1144 FILLER_40_109
*1145 FILLER_40_121
*1146 FILLER_40_133
*1147 FILLER_40_139
*1148 FILLER_40_141
*1149 FILLER_40_15
*1150 FILLER_40_153
*1151 FILLER_40_165
*1152 FILLER_40_177
*1153 FILLER_40_189
*1154 FILLER_40_195
*1155 FILLER_40_197
*1156 FILLER_40_209
*1157 FILLER_40_221
*1158 FILLER_40_233
*1159 FILLER_40_245
*1160 FILLER_40_251
*1161 FILLER_40_253
*1162 FILLER_40_265
*1163 FILLER_40_27
*1164 FILLER_40_277
*1165 FILLER_40_289
*1166 FILLER_40_29
*1167 FILLER_40_297
*1168 FILLER_40_3
*1169 FILLER_40_41
*1170 FILLER_40_53
*1171 FILLER_40_65
*1172 FILLER_40_77
*1173 FILLER_40_83
*1174 FILLER_40_85
*1175 FILLER_40_97
*1176 FILLER_41_105
*1177 FILLER_41_111
*1178 FILLER_41_113
*1179 FILLER_41_125
*1180 FILLER_41_137
*1181 FILLER_41_149
*1182 FILLER_41_15
*1183 FILLER_41_161
*1184 FILLER_41_167
*1185 FILLER_41_169
*1186 FILLER_41_181
*1187 FILLER_41_193
*1188 FILLER_41_205
*1189 FILLER_41_217
*1190 FILLER_41_223
*1191 FILLER_41_225
*1192 FILLER_41_237
*1193 FILLER_41_249
*1194 FILLER_41_261
*1195 FILLER_41_27
*1196 FILLER_41_273
*1197 FILLER_41_279
*1198 FILLER_41_281
*1199 FILLER_41_293
*1200 FILLER_41_3
*1201 FILLER_41_39
*1202 FILLER_41_51
*1203 FILLER_41_55
*1204 FILLER_41_57
*1205 FILLER_41_69
*1206 FILLER_41_81
*1207 FILLER_41_93
*1208 FILLER_42_109
*1209 FILLER_42_121
*1210 FILLER_42_133
*1211 FILLER_42_139
*1212 FILLER_42_141
*1213 FILLER_42_153
*1214 FILLER_42_165
*1215 FILLER_42_177
*1216 FILLER_42_189
*1217 FILLER_42_195
*1218 FILLER_42_197
*1219 FILLER_42_20
*1220 FILLER_42_209
*1221 FILLER_42_221
*1222 FILLER_42_233
*1223 FILLER_42_245
*1224 FILLER_42_251
*1225 FILLER_42_253
*1226 FILLER_42_265
*1227 FILLER_42_277
*1228 FILLER_42_289
*1229 FILLER_42_29
*1230 FILLER_42_297
*1231 FILLER_42_3
*1232 FILLER_42_41
*1233 FILLER_42_53
*1234 FILLER_42_65
*1235 FILLER_42_77
*1236 FILLER_42_8
*1237 FILLER_42_83
*1238 FILLER_42_85
*1239 FILLER_42_97
*1240 FILLER_43_105
*1241 FILLER_43_111
*1242 FILLER_43_113
*1243 FILLER_43_125
*1244 FILLER_43_137
*1245 FILLER_43_149
*1246 FILLER_43_15
*1247 FILLER_43_161
*1248 FILLER_43_167
*1249 FILLER_43_169
*1250 FILLER_43_181
*1251 FILLER_43_193
*1252 FILLER_43_205
*1253 FILLER_43_217
*1254 FILLER_43_223
*1255 FILLER_43_225
*1256 FILLER_43_237
*1257 FILLER_43_249
*1258 FILLER_43_261
*1259 FILLER_43_27
*1260 FILLER_43_273
*1261 FILLER_43_279
*1262 FILLER_43_281
*1263 FILLER_43_293
*1264 FILLER_43_3
*1265 FILLER_43_39
*1266 FILLER_43_51
*1267 FILLER_43_55
*1268 FILLER_43_57
*1269 FILLER_43_69
*1270 FILLER_43_81
*1271 FILLER_43_93
*1272 FILLER_44_109
*1273 FILLER_44_121
*1274 FILLER_44_133
*1275 FILLER_44_139
*1276 FILLER_44_141
*1277 FILLER_44_15
*1278 FILLER_44_153
*1279 FILLER_44_165
*1280 FILLER_44_177
*1281 FILLER_44_189
*1282 FILLER_44_195
*1283 FILLER_44_197
*1284 FILLER_44_209
*1285 FILLER_44_221
*1286 FILLER_44_233
*1287 FILLER_44_245
*1288 FILLER_44_251
*1289 FILLER_44_253
*1290 FILLER_44_265
*1291 FILLER_44_27
*1292 FILLER_44_277
*1293 FILLER_44_289
*1294 FILLER_44_29
*1295 FILLER_44_297
*1296 FILLER_44_3
*1297 FILLER_44_41
*1298 FILLER_44_53
*1299 FILLER_44_65
*1300 FILLER_44_77
*1301 FILLER_44_83
*1302 FILLER_44_85
*1303 FILLER_44_97
*1304 FILLER_45_105
*1305 FILLER_45_111
*1306 FILLER_45_113
*1307 FILLER_45_125
*1308 FILLER_45_137
*1309 FILLER_45_149
*1310 FILLER_45_15
*1311 FILLER_45_161
*1312 FILLER_45_167
*1313 FILLER_45_169
*1314 FILLER_45_181
*1315 FILLER_45_193
*1316 FILLER_45_205
*1317 FILLER_45_217
*1318 FILLER_45_223
*1319 FILLER_45_225
*1320 FILLER_45_237
*1321 FILLER_45_249
*1322 FILLER_45_261
*1323 FILLER_45_27
*1324 FILLER_45_273
*1325 FILLER_45_279
*1326 FILLER_45_281
*1327 FILLER_45_293
*1328 FILLER_45_3
*1329 FILLER_45_39
*1330 FILLER_45_51
*1331 FILLER_45_55
*1332 FILLER_45_57
*1333 FILLER_45_69
*1334 FILLER_45_81
*1335 FILLER_45_93
*1336 FILLER_46_109
*1337 FILLER_46_121
*1338 FILLER_46_133
*1339 FILLER_46_139
*1340 FILLER_46_141
*1341 FILLER_46_153
*1342 FILLER_46_165
*1343 FILLER_46_177
*1344 FILLER_46_189
*1345 FILLER_46_195
*1346 FILLER_46_197
*1347 FILLER_46_20
*1348 FILLER_46_209
*1349 FILLER_46_221
*1350 FILLER_46_233
*1351 FILLER_46_245
*1352 FILLER_46_251
*1353 FILLER_46_253
*1354 FILLER_46_265
*1355 FILLER_46_277
*1356 FILLER_46_289
*1357 FILLER_46_29
*1358 FILLER_46_297
*1359 FILLER_46_3
*1360 FILLER_46_41
*1361 FILLER_46_53
*1362 FILLER_46_65
*1363 FILLER_46_77
*1364 FILLER_46_8
*1365 FILLER_46_83
*1366 FILLER_46_85
*1367 FILLER_46_97
*1368 FILLER_47_105
*1369 FILLER_47_111
*1370 FILLER_47_113
*1371 FILLER_47_125
*1372 FILLER_47_137
*1373 FILLER_47_149
*1374 FILLER_47_15
*1375 FILLER_47_161
*1376 FILLER_47_167
*1377 FILLER_47_169
*1378 FILLER_47_181
*1379 FILLER_47_193
*1380 FILLER_47_205
*1381 FILLER_47_217
*1382 FILLER_47_223
*1383 FILLER_47_225
*1384 FILLER_47_237
*1385 FILLER_47_249
*1386 FILLER_47_261
*1387 FILLER_47_27
*1388 FILLER_47_273
*1389 FILLER_47_279
*1390 FILLER_47_281
*1391 FILLER_47_293
*1392 FILLER_47_3
*1393 FILLER_47_39
*1394 FILLER_47_51
*1395 FILLER_47_55
*1396 FILLER_47_57
*1397 FILLER_47_69
*1398 FILLER_47_81
*1399 FILLER_47_93
*1400 FILLER_48_109
*1401 FILLER_48_121
*1402 FILLER_48_133
*1403 FILLER_48_139
*1404 FILLER_48_141
*1405 FILLER_48_15
*1406 FILLER_48_153
*1407 FILLER_48_165
*1408 FILLER_48_177
*1409 FILLER_48_189
*1410 FILLER_48_195
*1411 FILLER_48_197
*1412 FILLER_48_209
*1413 FILLER_48_221
*1414 FILLER_48_233
*1415 FILLER_48_245
*1416 FILLER_48_251
*1417 FILLER_48_253
*1418 FILLER_48_265
*1419 FILLER_48_27
*1420 FILLER_48_277
*1421 FILLER_48_289
*1422 FILLER_48_29
*1423 FILLER_48_297
*1424 FILLER_48_3
*1425 FILLER_48_41
*1426 FILLER_48_53
*1427 FILLER_48_65
*1428 FILLER_48_77
*1429 FILLER_48_83
*1430 FILLER_48_85
*1431 FILLER_48_97
*1432 FILLER_49_105
*1433 FILLER_49_111
*1434 FILLER_49_113
*1435 FILLER_49_125
*1436 FILLER_49_137
*1437 FILLER_49_149
*1438 FILLER_49_15
*1439 FILLER_49_161
*1440 FILLER_49_167
*1441 FILLER_49_169
*1442 FILLER_49_181
*1443 FILLER_49_193
*1444 FILLER_49_205
*1445 FILLER_49_217
*1446 FILLER_49_223
*1447 FILLER_49_225
*1448 FILLER_49_237
*1449 FILLER_49_249
*1450 FILLER_49_261
*1451 FILLER_49_27
*1452 FILLER_49_273
*1453 FILLER_49_279
*1454 FILLER_49_281
*1455 FILLER_49_293
*1456 FILLER_49_3
*1457 FILLER_49_39
*1458 FILLER_49_51
*1459 FILLER_49_55
*1460 FILLER_49_57
*1461 FILLER_49_69
*1462 FILLER_49_81
*1463 FILLER_49_93
*1464 FILLER_4_109
*1465 FILLER_4_121
*1466 FILLER_4_133
*1467 FILLER_4_139
*1468 FILLER_4_141
*1469 FILLER_4_153
*1470 FILLER_4_165
*1471 FILLER_4_177
*1472 FILLER_4_189
*1473 FILLER_4_195
*1474 FILLER_4_197
*1475 FILLER_4_209
*1476 FILLER_4_221
*1477 FILLER_4_233
*1478 FILLER_4_24
*1479 FILLER_4_245
*1480 FILLER_4_251
*1481 FILLER_4_253
*1482 FILLER_4_265
*1483 FILLER_4_277
*1484 FILLER_4_289
*1485 FILLER_4_29
*1486 FILLER_4_297
*1487 FILLER_4_3
*1488 FILLER_4_41
*1489 FILLER_4_53
*1490 FILLER_4_65
*1491 FILLER_4_7
*1492 FILLER_4_77
*1493 FILLER_4_83
*1494 FILLER_4_85
*1495 FILLER_4_97
*1496 FILLER_50_109
*1497 FILLER_50_121
*1498 FILLER_50_133
*1499 FILLER_50_139
*1500 FILLER_50_141
*1501 FILLER_50_153
*1502 FILLER_50_165
*1503 FILLER_50_177
*1504 FILLER_50_189
*1505 FILLER_50_195
*1506 FILLER_50_197
*1507 FILLER_50_20
*1508 FILLER_50_209
*1509 FILLER_50_221
*1510 FILLER_50_233
*1511 FILLER_50_245
*1512 FILLER_50_251
*1513 FILLER_50_253
*1514 FILLER_50_265
*1515 FILLER_50_277
*1516 FILLER_50_289
*1517 FILLER_50_29
*1518 FILLER_50_297
*1519 FILLER_50_3
*1520 FILLER_50_41
*1521 FILLER_50_53
*1522 FILLER_50_65
*1523 FILLER_50_77
*1524 FILLER_50_8
*1525 FILLER_50_83
*1526 FILLER_50_85
*1527 FILLER_50_97
*1528 FILLER_51_105
*1529 FILLER_51_111
*1530 FILLER_51_113
*1531 FILLER_51_125
*1532 FILLER_51_137
*1533 FILLER_51_149
*1534 FILLER_51_15
*1535 FILLER_51_161
*1536 FILLER_51_167
*1537 FILLER_51_169
*1538 FILLER_51_181
*1539 FILLER_51_193
*1540 FILLER_51_205
*1541 FILLER_51_217
*1542 FILLER_51_223
*1543 FILLER_51_225
*1544 FILLER_51_237
*1545 FILLER_51_249
*1546 FILLER_51_261
*1547 FILLER_51_27
*1548 FILLER_51_273
*1549 FILLER_51_279
*1550 FILLER_51_281
*1551 FILLER_51_293
*1552 FILLER_51_3
*1553 FILLER_51_39
*1554 FILLER_51_51
*1555 FILLER_51_55
*1556 FILLER_51_57
*1557 FILLER_51_69
*1558 FILLER_51_81
*1559 FILLER_51_93
*1560 FILLER_52_109
*1561 FILLER_52_121
*1562 FILLER_52_133
*1563 FILLER_52_139
*1564 FILLER_52_141
*1565 FILLER_52_15
*1566 FILLER_52_153
*1567 FILLER_52_165
*1568 FILLER_52_177
*1569 FILLER_52_189
*1570 FILLER_52_195
*1571 FILLER_52_197
*1572 FILLER_52_209
*1573 FILLER_52_221
*1574 FILLER_52_233
*1575 FILLER_52_245
*1576 FILLER_52_251
*1577 FILLER_52_253
*1578 FILLER_52_265
*1579 FILLER_52_27
*1580 FILLER_52_277
*1581 FILLER_52_289
*1582 FILLER_52_29
*1583 FILLER_52_297
*1584 FILLER_52_3
*1585 FILLER_52_41
*1586 FILLER_52_53
*1587 FILLER_52_65
*1588 FILLER_52_77
*1589 FILLER_52_83
*1590 FILLER_52_85
*1591 FILLER_52_97
*1592 FILLER_53_105