*SPEF "ieee 1481-1999"
*DESIGN "user_module_364627602320567297"
*DATE "11:11:11 Fri 11 11, 1111"
*VENDOR "OpenRCX"
*PROGRAM "Parallel Extraction"
*VERSION "1.0"
*DESIGN_FLOW "NAME_SCOPE LOCAL" "PIN_CAP NONE"
*DIVIDER /
*DELIMITER :
*BUS_DELIMITER []
*T_UNIT 1 NS
*C_UNIT 1 PF
*R_UNIT 1 OHM
*L_UNIT 1 HENRY

*NAME_MAP
*1 io_in[0]
*2 io_in[1]
*3 io_in[2]
*4 io_in[3]
*5 io_in[4]
*6 io_in[5]
*7 io_in[6]
*8 io_in[7]
*9 io_out[0]
*10 io_out[1]
*11 io_out[2]
*12 net2
*13 net3
*14 net4
*15 net5
*16 net6
*19 _00_
*20 _01_
*21 _02_
*22 _03_
*23 _04_
*24 _05_
*25 _06_
*26 _07_
*27 _08_
*28 _09_
*29 _10_
*30 and10\.b
*31 and100\.out
*32 and103\.out
*33 and13\.b
*34 and15\.b
*35 clknet_0__03_
*36 clknet_0__05_
*37 clknet_0_io_in[0]
*38 clknet_1_0__leaf__03_
*39 clknet_1_0__leaf__05_
*40 clknet_1_0__leaf_io_in[0]
*41 clknet_1_1__leaf__03_
*42 clknet_1_1__leaf__05_
*43 clknet_1_1__leaf_io_in[0]
*44 flop2\.d
*45 flop2\.q
*46 flop3\.d
*47 flop4\.d
*48 flop5\.d
*49 net1
*50 not1\.out
*51 FILLER_0_109
*52 FILLER_0_113
*53 FILLER_0_125
*54 FILLER_0_137
*55 FILLER_0_141
*56 FILLER_0_153
*57 FILLER_0_165
*58 FILLER_0_169
*59 FILLER_0_181
*60 FILLER_0_193
*61 FILLER_0_197
*62 FILLER_0_209
*63 FILLER_0_221
*64 FILLER_0_225
*65 FILLER_0_237
*66 FILLER_0_249
*67 FILLER_0_253
*68 FILLER_0_26
*69 FILLER_0_265
*70 FILLER_0_277
*71 FILLER_0_281
*72 FILLER_0_29
*73 FILLER_0_293
*74 FILLER_0_3
*75 FILLER_0_41
*76 FILLER_0_53
*77 FILLER_0_57
*78 FILLER_0_69
*79 FILLER_0_81
*80 FILLER_0_85
*81 FILLER_0_97
*82 FILLER_10_109
*83 FILLER_10_121
*84 FILLER_10_133
*85 FILLER_10_139
*86 FILLER_10_14
*87 FILLER_10_141
*88 FILLER_10_153
*89 FILLER_10_165
*90 FILLER_10_177
*91 FILLER_10_189
*92 FILLER_10_195
*93 FILLER_10_197
*94 FILLER_10_209
*95 FILLER_10_221
*96 FILLER_10_23
*97 FILLER_10_233
*98 FILLER_10_245
*99 FILLER_10_251
*100 FILLER_10_253
*101 FILLER_10_265
*102 FILLER_10_27
*103 FILLER_10_277
*104 FILLER_10_289
*105 FILLER_10_29
*106 FILLER_10_297
*107 FILLER_10_3
*108 FILLER_10_48
*109 FILLER_10_60
*110 FILLER_10_72
*111 FILLER_10_85
*112 FILLER_10_97
*113 FILLER_11_105
*114 FILLER_11_111
*115 FILLER_11_113
*116 FILLER_11_12
*117 FILLER_11_125
*118 FILLER_11_137
*119 FILLER_11_149
*120 FILLER_11_161
*121 FILLER_11_167
*122 FILLER_11_169
*123 FILLER_11_181
*124 FILLER_11_193
*125 FILLER_11_205
*126 FILLER_11_217
*127 FILLER_11_223
*128 FILLER_11_225
*129 FILLER_11_237
*130 FILLER_11_249
*131 FILLER_11_261
*132 FILLER_11_273
*133 FILLER_11_279
*134 FILLER_11_281
*135 FILLER_11_293
*136 FILLER_11_3
*137 FILLER_11_36
*138 FILLER_11_48
*139 FILLER_11_57
*140 FILLER_11_69
*141 FILLER_11_81
*142 FILLER_11_93
*143 FILLER_12_109
*144 FILLER_12_11
*145 FILLER_12_121
*146 FILLER_12_133
*147 FILLER_12_139
*148 FILLER_12_141
*149 FILLER_12_153
*150 FILLER_12_165
*151 FILLER_12_17
*152 FILLER_12_177
*153 FILLER_12_189
*154 FILLER_12_195
*155 FILLER_12_197
*156 FILLER_12_209
*157 FILLER_12_221
*158 FILLER_12_233
*159 FILLER_12_24
*160 FILLER_12_245
*161 FILLER_12_251
*162 FILLER_12_253
*163 FILLER_12_265
*164 FILLER_12_277
*165 FILLER_12_289
*166 FILLER_12_29
*167 FILLER_12_297
*168 FILLER_12_3
*169 FILLER_12_41
*170 FILLER_12_53
*171 FILLER_12_65
*172 FILLER_12_77
*173 FILLER_12_83
*174 FILLER_12_85
*175 FILLER_12_97
*176 FILLER_13_105
*177 FILLER_13_111
*178 FILLER_13_113
*179 FILLER_13_125
*180 FILLER_13_137
*181 FILLER_13_149
*182 FILLER_13_16
*183 FILLER_13_161
*184 FILLER_13_167
*185 FILLER_13_169
*186 FILLER_13_181
*187 FILLER_13_193
*188 FILLER_13_205
*189 FILLER_13_217
*190 FILLER_13_223
*191 FILLER_13_225
*192 FILLER_13_237
*193 FILLER_13_249
*194 FILLER_13_261
*195 FILLER_13_273
*196 FILLER_13_279
*197 FILLER_13_28
*198 FILLER_13_281
*199 FILLER_13_293
*200 FILLER_13_3
*201 FILLER_13_40
*202 FILLER_13_52
*203 FILLER_13_57
*204 FILLER_13_69
*205 FILLER_13_81
*206 FILLER_13_9
*207 FILLER_13_93
*208 FILLER_14_109
*209 FILLER_14_121
*210 FILLER_14_133
*211 FILLER_14_139
*212 FILLER_14_141
*213 FILLER_14_15
*214 FILLER_14_153
*215 FILLER_14_165
*216 FILLER_14_177
*217 FILLER_14_189
*218 FILLER_14_195
*219 FILLER_14_197
*220 FILLER_14_209
*221 FILLER_14_221
*222 FILLER_14_233
*223 FILLER_14_245
*224 FILLER_14_251
*225 FILLER_14_253
*226 FILLER_14_265
*227 FILLER_14_27
*228 FILLER_14_277
*229 FILLER_14_289
*230 FILLER_14_29
*231 FILLER_14_297
*232 FILLER_14_3
*233 FILLER_14_41
*234 FILLER_14_53
*235 FILLER_14_65
*236 FILLER_14_77
*237 FILLER_14_83
*238 FILLER_14_85
*239 FILLER_14_97
*240 FILLER_15_105
*241 FILLER_15_111
*242 FILLER_15_113
*243 FILLER_15_125
*244 FILLER_15_137
*245 FILLER_15_149
*246 FILLER_15_15
*247 FILLER_15_161
*248 FILLER_15_167
*249 FILLER_15_169
*250 FILLER_15_181
*251 FILLER_15_193
*252 FILLER_15_205
*253 FILLER_15_217
*254 FILLER_15_223
*255 FILLER_15_225
*256 FILLER_15_237
*257 FILLER_15_249
*258 FILLER_15_261
*259 FILLER_15_27
*260 FILLER_15_273
*261 FILLER_15_279
*262 FILLER_15_281
*263 FILLER_15_293
*264 FILLER_15_3
*265 FILLER_15_39
*266 FILLER_15_51
*267 FILLER_15_55
*268 FILLER_15_57
*269 FILLER_15_69
*270 FILLER_15_81
*271 FILLER_15_93
*272 FILLER_16_109
*273 FILLER_16_121
*274 FILLER_16_133
*275 FILLER_16_139
*276 FILLER_16_141
*277 FILLER_16_15
*278 FILLER_16_153
*279 FILLER_16_165
*280 FILLER_16_177
*281 FILLER_16_189
*282 FILLER_16_195
*283 FILLER_16_197
*284 FILLER_16_209
*285 FILLER_16_221
*286 FILLER_16_233
*287 FILLER_16_245
*288 FILLER_16_251
*289 FILLER_16_253
*290 FILLER_16_265
*291 FILLER_16_27
*292 FILLER_16_277
*293 FILLER_16_289
*294 FILLER_16_29
*295 FILLER_16_297
*296 FILLER_16_3
*297 FILLER_16_41
*298 FILLER_16_53
*299 FILLER_16_65
*300 FILLER_16_77
*301 FILLER_16_83
*302 FILLER_16_85
*303 FILLER_16_97
*304 FILLER_17_105
*305 FILLER_17_111
*306 FILLER_17_113
*307 FILLER_17_125
*308 FILLER_17_137
*309 FILLER_17_149
*310 FILLER_17_15
*311 FILLER_17_161
*312 FILLER_17_167
*313 FILLER_17_169
*314 FILLER_17_181
*315 FILLER_17_193
*316 FILLER_17_205
*317 FILLER_17_217
*318 FILLER_17_223
*319 FILLER_17_225
*320 FILLER_17_237
*321 FILLER_17_249
*322 FILLER_17_261
*323 FILLER_17_27
*324 FILLER_17_273
*325 FILLER_17_279
*326 FILLER_17_281
*327 FILLER_17_293
*328 FILLER_17_3
*329 FILLER_17_39
*330 FILLER_17_51
*331 FILLER_17_55
*332 FILLER_17_57
*333 FILLER_17_69
*334 FILLER_17_81
*335 FILLER_17_93
*336 FILLER_18_109
*337 FILLER_18_121
*338 FILLER_18_133
*339 FILLER_18_139
*340 FILLER_18_141
*341 FILLER_18_15
*342 FILLER_18_153
*343 FILLER_18_165
*344 FILLER_18_177
*345 FILLER_18_189
*346 FILLER_18_195
*347 FILLER_18_197
*348 FILLER_18_209
*349 FILLER_18_221
*350 FILLER_18_233
*351 FILLER_18_245
*352 FILLER_18_251
*353 FILLER_18_253
*354 FILLER_18_265
*355 FILLER_18_27
*356 FILLER_18_277
*357 FILLER_18_289
*358 FILLER_18_29
*359 FILLER_18_297
*360 FILLER_18_3
*361 FILLER_18_41
*362 FILLER_18_53
*363 FILLER_18_65
*364 FILLER_18_77
*365 FILLER_18_83
*366 FILLER_18_85
*367 FILLER_18_97
*368 FILLER_19_105
*369 FILLER_19_111
*370 FILLER_19_113
*371 FILLER_19_125
*372 FILLER_19_137
*373 FILLER_19_149
*374 FILLER_19_15
*375 FILLER_19_161
*376 FILLER_19_167
*377 FILLER_19_169
*378 FILLER_19_181
*379 FILLER_19_193
*380 FILLER_19_205
*381 FILLER_19_217
*382 FILLER_19_223
*383 FILLER_19_225
*384 FILLER_19_237
*385 FILLER_19_249
*386 FILLER_19_261
*387 FILLER_19_27
*388 FILLER_19_273
*389 FILLER_19_279
*390 FILLER_19_281
*391 FILLER_19_293
*392 FILLER_19_3
*393 FILLER_19_39
*394 FILLER_19_51
*395 FILLER_19_55
*396 FILLER_19_57
*397 FILLER_19_69
*398 FILLER_19_81
*399 FILLER_19_93
*400 FILLER_1_105
*401 FILLER_1_111
*402 FILLER_1_113
*403 FILLER_1_125
*404 FILLER_1_137
*405 FILLER_1_149
*406 FILLER_1_15
*407 FILLER_1_161
*408 FILLER_1_167
*409 FILLER_1_169
*410 FILLER_1_181
*411 FILLER_1_193
*412 FILLER_1_205
*413 FILLER_1_217
*414 FILLER_1_223
*415 FILLER_1_225
*416 FILLER_1_237
*417 FILLER_1_249
*418 FILLER_1_261
*419 FILLER_1_273
*420 FILLER_1_279
*421 FILLER_1_281
*422 FILLER_1_293
*423 FILLER_1_3
*424 FILLER_1_36
*425 FILLER_1_48
*426 FILLER_1_57
*427 FILLER_1_69
*428 FILLER_1_81
*429 FILLER_1_93
*430 FILLER_20_109
*431 FILLER_20_121
*432 FILLER_20_133
*433 FILLER_20_139
*434 FILLER_20_141
*435 FILLER_20_15
*436 FILLER_20_153
*437 FILLER_20_165
*438 FILLER_20_177
*439 FILLER_20_189
*440 FILLER_20_195
*441 FILLER_20_197
*442 FILLER_20_209
*443 FILLER_20_221
*444 FILLER_20_233
*445 FILLER_20_245
*446 FILLER_20_251
*447 FILLER_20_253
*448 FILLER_20_265
*449 FILLER_20_27
*450 FILLER_20_277
*451 FILLER_20_289
*452 FILLER_20_29
*453 FILLER_20_297
*454 FILLER_20_3
*455 FILLER_20_41
*456 FILLER_20_53
*457 FILLER_20_65
*458 FILLER_20_77
*459 FILLER_20_83
*460 FILLER_20_85
*461 FILLER_20_97
*462 FILLER_21_105
*463 FILLER_21_111
*464 FILLER_21_113
*465 FILLER_21_125
*466 FILLER_21_137
*467 FILLER_21_149
*468 FILLER_21_15
*469 FILLER_21_161
*470 FILLER_21_167
*471 FILLER_21_169
*472 FILLER_21_181
*473 FILLER_21_193
*474 FILLER_21_205
*475 FILLER_21_217
*476 FILLER_21_223
*477 FILLER_21_225
*478 FILLER_21_237
*479 FILLER_21_249
*480 FILLER_21_261
*481 FILLER_21_27
*482 FILLER_21_273
*483 FILLER_21_279
*484 FILLER_21_281
*485 FILLER_21_293
*486 FILLER_21_3
*487 FILLER_21_39
*488 FILLER_21_51
*489 FILLER_21_55
*490 FILLER_21_57
*491 FILLER_21_69
*492 FILLER_21_81
*493 FILLER_21_93
*494 FILLER_22_109
*495 FILLER_22_121
*496 FILLER_22_133
*497 FILLER_22_139
*498 FILLER_22_141
*499 FILLER_22_15
*500 FILLER_22_153
*501 FILLER_22_165
*502 FILLER_22_177
*503 FILLER_22_189
*504 FILLER_22_195
*505 FILLER_22_197
*506 FILLER_22_209
*507 FILLER_22_221
*508 FILLER_22_233
*509 FILLER_22_245
*510 FILLER_22_251
*511 FILLER_22_253
*512 FILLER_22_265
*513 FILLER_22_27
*514 FILLER_22_277
*515 FILLER_22_289
*516 FILLER_22_29
*517 FILLER_22_297
*518 FILLER_22_3
*519 FILLER_22_41
*520 FILLER_22_53
*521 FILLER_22_65
*522 FILLER_22_77
*523 FILLER_22_83
*524 FILLER_22_85
*525 FILLER_22_97
*526 FILLER_23_105
*527 FILLER_23_111
*528 FILLER_23_113
*529 FILLER_23_125
*530 FILLER_23_137
*531 FILLER_23_149
*532 FILLER_23_15
*533 FILLER_23_161
*534 FILLER_23_167
*535 FILLER_23_169
*536 FILLER_23_181
*537 FILLER_23_193
*538 FILLER_23_205
*539 FILLER_23_217
*540 FILLER_23_223
*541 FILLER_23_225
*542 FILLER_23_237
*543 FILLER_23_249
*544 FILLER_23_261
*545 FILLER_23_27
*546 FILLER_23_273
*547 FILLER_23_279
*548 FILLER_23_281
*549 FILLER_23_293
*550 FILLER_23_3
*551 FILLER_23_39
*552 FILLER_23_51
*553 FILLER_23_55
*554 FILLER_23_57
*555 FILLER_23_69
*556 FILLER_23_81
*557 FILLER_23_93
*558 FILLER_24_109
*559 FILLER_24_121
*560 FILLER_24_133
*561 FILLER_24_139
*562 FILLER_24_141
*563 FILLER_24_15
*564 FILLER_24_153
*565 FILLER_24_165
*566 FILLER_24_177
*567 FILLER_24_189
*568 FILLER_24_195
*569 FILLER_24_197
*570 FILLER_24_209
*571 FILLER_24_221
*572 FILLER_24_233
*573 FILLER_24_245
*574 FILLER_24_251
*575 FILLER_24_253
*576 FILLER_24_265
*577 FILLER_24_27
*578 FILLER_24_277
*579 FILLER_24_289
*580 FILLER_24_29
*581 FILLER_24_297
*582 FILLER_24_3
*583 FILLER_24_41
*584 FILLER_24_53
*585 FILLER_24_65
*586 FILLER_24_77
*587 FILLER_24_83
*588 FILLER_24_85
*589 FILLER_24_97
*590 FILLER_25_105
*591 FILLER_25_111
*592 FILLER_25_113
*593 FILLER_25_125
*594 FILLER_25_137
*595 FILLER_25_149
*596 FILLER_25_15
*597 FILLER_25_161
*598 FILLER_25_167
*599 FILLER_25_169
*600 FILLER_25_181
*601 FILLER_25_193
*602 FILLER_25_205
*603 FILLER_25_217
*604 FILLER_25_223
*605 FILLER_25_225
*606 FILLER_25_237
*607 FILLER_25_249
*608 FILLER_25_261
*609 FILLER_25_27
*610 FILLER_25_273
*611 FILLER_25_279
*612 FILLER_25_281
*613 FILLER_25_293
*614 FILLER_25_3
*615 FILLER_25_39
*616 FILLER_25_51
*617 FILLER_25_55
*618 FILLER_25_57
*619 FILLER_25_69
*620 FILLER_25_81
*621 FILLER_25_93
*622 FILLER_26_109
*623 FILLER_26_121
*624 FILLER_26_133
*625 FILLER_26_139
*626 FILLER_26_141
*627 FILLER_26_15
*628 FILLER_26_153
*629 FILLER_26_165
*630 FILLER_26_177
*631 FILLER_26_189
*632 FILLER_26_195
*633 FILLER_26_197
*634 FILLER_26_209
*635 FILLER_26_221
*636 FILLER_26_233
*637 FILLER_26_245
*638 FILLER_26_251
*639 FILLER_26_253
*640 FILLER_26_265
*641 FILLER_26_27
*642 FILLER_26_277
*643 FILLER_26_289
*644 FILLER_26_29
*645 FILLER_26_297
*646 FILLER_26_3
*647 FILLER_26_41
*648 FILLER_26_53
*649 FILLER_26_65
*650 FILLER_26_77
*651 FILLER_26_83
*652 FILLER_26_85
*653 FILLER_26_97
*654 FILLER_27_105
*655 FILLER_27_111
*656 FILLER_27_113
*657 FILLER_27_125
*658 FILLER_27_137
*659 FILLER_27_149
*660 FILLER_27_15
*661 FILLER_27_161
*662 FILLER_27_167
*663 FILLER_27_169
*664 FILLER_27_181
*665 FILLER_27_193
*666 FILLER_27_205
*667 FILLER_27_217
*668 FILLER_27_223
*669 FILLER_27_225
*670 FILLER_27_237
*671 FILLER_27_249
*672 FILLER_27_261
*673 FILLER_27_27
*674 FILLER_27_273
*675 FILLER_27_279
*676 FILLER_27_281
*677 FILLER_27_293
*678 FILLER_27_3
*679 FILLER_27_39
*680 FILLER_27_51
*681 FILLER_27_55
*682 FILLER_27_57
*683 FILLER_27_69
*684 FILLER_27_81
*685 FILLER_27_93
*686 FILLER_28_109
*687 FILLER_28_121
*688 FILLER_28_133
*689 FILLER_28_139
*690 FILLER_28_141
*691 FILLER_28_15
*692 FILLER_28_153
*693 FILLER_28_165
*694 FILLER_28_177
*695 FILLER_28_189
*696 FILLER_28_195
*697 FILLER_28_197
*698 FILLER_28_209
*699 FILLER_28_221
*700 FILLER_28_233
*701 FILLER_28_245
*702 FILLER_28_251
*703 FILLER_28_253
*704 FILLER_28_265
*705 FILLER_28_27
*706 FILLER_28_277
*707 FILLER_28_289
*708 FILLER_28_29
*709 FILLER_28_297
*710 FILLER_28_3
*711 FILLER_28_41
*712 FILLER_28_53
*713 FILLER_28_65
*714 FILLER_28_77
*715 FILLER_28_83
*716 FILLER_28_85
*717 FILLER_28_97
*718 FILLER_29_105
*719 FILLER_29_111
*720 FILLER_29_113
*721 FILLER_29_125
*722 FILLER_29_137
*723 FILLER_29_149
*724 FILLER_29_15
*725 FILLER_29_161
*726 FILLER_29_167
*727 FILLER_29_169
*728 FILLER_29_181
*729 FILLER_29_193
*730 FILLER_29_205
*731 FILLER_29_217
*732 FILLER_29_223
*733 FILLER_29_225
*734 FILLER_29_237
*735 FILLER_29_249
*736 FILLER_29_261
*737 FILLER_29_27
*738 FILLER_29_273
*739 FILLER_29_279
*740 FILLER_29_281
*741 FILLER_29_293
*742 FILLER_29_3
*743 FILLER_29_39
*744 FILLER_29_51
*745 FILLER_29_55
*746 FILLER_29_57
*747 FILLER_29_69
*748 FILLER_29_81
*749 FILLER_29_93
*750 FILLER_2_109
*751 FILLER_2_121
*752 FILLER_2_133
*753 FILLER_2_139
*754 FILLER_2_141
*755 FILLER_2_153
*756 FILLER_2_165
*757 FILLER_2_177
*758 FILLER_2_189
*759 FILLER_2_195
*760 FILLER_2_197
*761 FILLER_2_209
*762 FILLER_2_221
*763 FILLER_2_233
*764 FILLER_2_245
*765 FILLER_2_25
*766 FILLER_2_251
*767 FILLER_2_253
*768 FILLER_2_265
*769 FILLER_2_277
*770 FILLER_2_289
*771 FILLER_2_29
*772 FILLER_2_297
*773 FILLER_2_3
*774 FILLER_2_41
*775 FILLER_2_53
*776 FILLER_2_65
*777 FILLER_2_77
*778 FILLER_2_83
*779 FILLER_2_85
*780 FILLER_2_97
*781 FILLER_30_10
*782 FILLER_30_109
*783 FILLER_30_121
*784 FILLER_30_133
*785 FILLER_30_139
*786 FILLER_30_141
*787 FILLER_30_153
*788 FILLER_30_165
*789 FILLER_30_177
*790 FILLER_30_189
*791 FILLER_30_195
*792 FILLER_30_197
*793 FILLER_30_209
*794 FILLER_30_22
*795 FILLER_30_221
*796 FILLER_30_233
*797 FILLER_30_245
*798 FILLER_30_251
*799 FILLER_30_253
*800 FILLER_30_265
*801 FILLER_30_277
*802 FILLER_30_289
*803 FILLER_30_29
*804 FILLER_30_297
*805 FILLER_30_3
*806 FILLER_30_41
*807 FILLER_30_53
*808 FILLER_30_65
*809 FILLER_30_77
*810 FILLER_30_83
*811 FILLER_30_85
*812 FILLER_30_97
*813 FILLER_31_105
*814 FILLER_31_111
*815 FILLER_31_113
*816 FILLER_31_125
*817 FILLER_31_137
*818 FILLER_31_149
*819 FILLER_31_161
*820 FILLER_31_167
*821 FILLER_31_169
*822 FILLER_31_181
*823 FILLER_31_193
*824 FILLER_31_205
*825 FILLER_31_21
*826 FILLER_31_217
*827 FILLER_31_223
*828 FILLER_31_225
*829 FILLER_31_237
*830 FILLER_31_249
*831 FILLER_31_261
*832 FILLER_31_273
*833 FILLER_31_279
*834 FILLER_31_281
*835 FILLER_31_293
*836 FILLER_31_3
*837 FILLER_31_33
*838 FILLER_31_45
*839 FILLER_31_53
*840 FILLER_31_57
*841 FILLER_31_69
*842 FILLER_31_81
*843 FILLER_31_9
*844 FILLER_31_93
*845 FILLER_32_109
*846 FILLER_32_121
*847 FILLER_32_133
*848 FILLER_32_139
*849 FILLER_32_141
*850 FILLER_32_153
*851 FILLER_32_165
*852 FILLER_32_177
*853 FILLER_32_189
*854 FILLER_32_195
*855 FILLER_32_197
*856 FILLER_32_209
*857 FILLER_32_21
*858 FILLER_32_221
*859 FILLER_32_233
*860 FILLER_32_245
*861 FILLER_32_251
*862 FILLER_32_253
*863 FILLER_32_265
*864 FILLER_32_27
*865 FILLER_32_277
*866 FILLER_32_289
*867 FILLER_32_29
*868 FILLER_32_297
*869 FILLER_32_3
*870 FILLER_32_41
*871 FILLER_32_53
*872 FILLER_32_65
*873 FILLER_32_77
*874 FILLER_32_83
*875 FILLER_32_85
*876 FILLER_32_9
*877 FILLER_32_97
*878 FILLER_33_105
*879 FILLER_33_111
*880 FILLER_33_113
*881 FILLER_33_125
*882 FILLER_33_137
*883 FILLER_33_149
*884 FILLER_33_161
*885 FILLER_33_167
*886 FILLER_33_169
*887 FILLER_33_181
*888 FILLER_33_193
*889 FILLER_33_205
*890 FILLER_33_21
*891 FILLER_33_217
*892 FILLER_33_223
*893 FILLER_33_225
*894 FILLER_33_237
*895 FILLER_33_249
*896 FILLER_33_261
*897 FILLER_33_273
*898 FILLER_33_279
*899 FILLER_33_281
*900 FILLER_33_293
*901 FILLER_33_3
*902 FILLER_33_33
*903 FILLER_33_45
*904 FILLER_33_53
*905 FILLER_33_57
*906 FILLER_33_69
*907 FILLER_33_81
*908 FILLER_33_9
*909 FILLER_33_93
*910 FILLER_34_109
*911 FILLER_34_121
*912 FILLER_34_133
*913 FILLER_34_139
*914 FILLER_34_141
*915 FILLER_34_15
*916 FILLER_34_153
*917 FILLER_34_165
*918 FILLER_34_177
*919 FILLER_34_189
*920 FILLER_34_195
*921 FILLER_34_197
*922 FILLER_34_209
*923 FILLER_34_221
*924 FILLER_34_233
*925 FILLER_34_245
*926 FILLER_34_251
*927 FILLER_34_253
*928 FILLER_34_265
*929 FILLER_34_27
*930 FILLER_34_277
*931 FILLER_34_289
*932 FILLER_34_29
*933 FILLER_34_297
*934 FILLER_34_3
*935 FILLER_34_41
*936 FILLER_34_53
*937 FILLER_34_65
*938 FILLER_34_77
*939 FILLER_34_83
*940 FILLER_34_85
*941 FILLER_34_97
*942 FILLER_35_105
*943 FILLER_35_111
*944 FILLER_35_113
*945 FILLER_35_125
*946 FILLER_35_137
*947 FILLER_35_149
*948 FILLER_35_15
*949 FILLER_35_161
*950 FILLER_35_167
*951 FILLER_35_169
*952 FILLER_35_181
*953 FILLER_35_193
*954 FILLER_35_205
*955 FILLER_35_217
*956 FILLER_35_223
*957 FILLER_35_225
*958 FILLER_35_237
*959 FILLER_35_249
*960 FILLER_35_261
*961 FILLER_35_27
*962 FILLER_35_273
*963 FILLER_35_279
*964 FILLER_35_281
*965 FILLER_35_293
*966 FILLER_35_3
*967 FILLER_35_39
*968 FILLER_35_51
*969 FILLER_35_55
*970 FILLER_35_57
*971 FILLER_35_69
*972 FILLER_35_81
*973 FILLER_35_93
*974 FILLER_36_109
*975 FILLER_36_121
*976 FILLER_36_133
*977 FILLER_36_139
*978 FILLER_36_141
*979 FILLER_36_15
*980 FILLER_36_153
*981 FILLER_36_165
*982 FILLER_36_177
*983 FILLER_36_189
*984 FILLER_36_195
*985 FILLER_36_197
*986 FILLER_36_209
*987 FILLER_36_221
*988 FILLER_36_233
*989 FILLER_36_245
*990 FILLER_36_251
*991 FILLER_36_253
*992 FILLER_36_265
*993 FILLER_36_27
*994 FILLER_36_277
*995 FILLER_36_289
*996 FILLER_36_29
*997 FILLER_36_297
*998 FILLER_36_3
*999 FILLER_36_41
*1000 FILLER_36_53
*1001 FILLER_36_65
*1002 FILLER_36_77
*1003 FILLER_36_83
*1004 FILLER_36_85
*1005 FILLER_36_97
*1006 FILLER_37_105
*1007 FILLER_37_111
*1008 FILLER_37_113
*1009 FILLER_37_125
*1010 FILLER_37_137
*1011 FILLER_37_149
*1012 FILLER_37_15
*1013 FILLER_37_161
*1014 FILLER_37_167
*1015 FILLER_37_169
*1016 FILLER_37_181
*1017 FILLER_37_193
*1018 FILLER_37_205
*1019 FILLER_37_217
*1020 FILLER_37_223
*1021 FILLER_37_225
*1022 FILLER_37_237
*1023 FILLER_37_249
*1024 FILLER_37_261
*1025 FILLER_37_27
*1026 FILLER_37_273
*1027 FILLER_37_279
*1028 FILLER_37_281
*1029 FILLER_37_293
*1030 FILLER_37_3
*1031 FILLER_37_39
*1032 FILLER_37_51
*1033 FILLER_37_55
*1034 FILLER_37_57
*1035 FILLER_37_69
*1036 FILLER_37_81
*1037 FILLER_37_93
*1038 FILLER_38_109
*1039 FILLER_38_121
*1040 FILLER_38_133
*1041 FILLER_38_139
*1042 FILLER_38_141
*1043 FILLER_38_15
*1044 FILLER_38_153
*1045 FILLER_38_165
*1046 FILLER_38_177
*1047 FILLER_38_189
*1048 FILLER_38_195
*1049 FILLER_38_197
*1050 FILLER_38_209
*1051 FILLER_38_221
*1052 FILLER_38_233
*1053 FILLER_38_245
*1054 FILLER_38_251
*1055 FILLER_38_253
*1056 FILLER_38_265
*1057 FILLER_38_27
*1058 FILLER_38_277
*1059 FILLER_38_289
*1060 FILLER_38_29
*1061 FILLER_38_297
*1062 FILLER_38_3
*1063 FILLER_38_41
*1064 FILLER_38_53
*1065 FILLER_38_65
*1066 FILLER_38_77
*1067 FILLER_38_83
*1068 FILLER_38_85
*1069 FILLER_38_97
*1070 FILLER_39_105
*1071 FILLER_39_111
*1072 FILLER_39_113
*1073 FILLER_39_125
*1074 FILLER_39_137
*1075 FILLER_39_149
*1076 FILLER_39_15
*1077 FILLER_39_161
*1078 FILLER_39_167
*1079 FILLER_39_169
*1080 FILLER_39_181
*1081 FILLER_39_193
*1082 FILLER_39_205
*1083 FILLER_39_217
*1084 FILLER_39_223
*1085 FILLER_39_225
*1086 FILLER_39_237
*1087 FILLER_39_249
*1088 FILLER_39_261
*1089 FILLER_39_27
*1090 FILLER_39_273
*1091 FILLER_39_279
*1092 FILLER_39_281
*1093 FILLER_39_293
*1094 FILLER_39_3
*1095 FILLER_39_39
*1096 FILLER_39_51
*1097 FILLER_39_55
*1098 FILLER_39_57
*1099 FILLER_39_69
*1100 FILLER_39_81
*1101 FILLER_39_93
*1102 FILLER_3_105
*1103 FILLER_3_111
*1104 FILLER_3_113
*1105 FILLER_3_12
*1106 FILLER_3_125
*1107 FILLER_3_137
*1108 FILLER_3_149
*1109 FILLER_3_161
*1110 FILLER_3_167
*1111 FILLER_3_169
*1112 FILLER_3_181
*1113 FILLER_3_193
*1114 FILLER_3_205
*1115 FILLER_3_217
*1116 FILLER_3_223
*1117 FILLER_3_225
*1118 FILLER_3_237
*1119 FILLER_3_249
*1120 FILLER_3_261
*1121 FILLER_3_273
*1122 FILLER_3_279
*1123 FILLER_3_281
*1124 FILLER_3_293
*1125 FILLER_3_3
*1126 FILLER_3_36
*1127 FILLER_3_48
*1128 FILLER_3_57
*1129 FILLER_3_69
*1130 FILLER_3_81
*1131 FILLER_3_93
*1132 FILLER_40_109
*1133 FILLER_40_121
*1134 FILLER_40_133
*1135 FILLER_40_139
*1136 FILLER_40_141
*1137 FILLER_40_15
*1138 FILLER_40_153
*1139 FILLER_40_165
*1140 FILLER_40_177
*1141 FILLER_40_189
*1142 FILLER_40_195
*1143 FILLER_40_197
*1144 FILLER_40_209
*1145 FILLER_40_221
*1146 FILLER_40_233
*1147 FILLER_40_245
*1148 FILLER_40_251
*1149 FILLER_40_253
*1150 FILLER_40_265
*1151 FILLER_40_27
*1152 FILLER_40_277
*1153 FILLER_40_289
*1154 FILLER_40_29
*1155 FILLER_40_297
*1156 FILLER_40_3
*1157 FILLER_40_41
*1158 FILLER_40_53
*1159 FILLER_40_65
*1160 FILLER_40_77
*1161 FILLER_40_83
*1162 FILLER_40_85
*1163 FILLER_40_97
*1164 FILLER_41_105
*1165 FILLER_41_111
*1166 FILLER_41_113
*1167 FILLER_41_125
*1168 FILLER_41_137
*1169 FILLER_41_149
*1170 FILLER_41_15
*1171 FILLER_41_161
*1172 FILLER_41_167
*1173 FILLER_41_169
*1174 FILLER_41_181
*1175 FILLER_41_193
*1176 FILLER_41_205
*1177 FILLER_41_217
*1178 FILLER_41_223
*1179 FILLER_41_225
*1180 FILLER_41_237
*1181 FILLER_41_249
*1182 FILLER_41_261
*1183 FILLER_41_27
*1184 FILLER_41_273
*1185 FILLER_41_279
*1186 FILLER_41_281
*1187 FILLER_41_293
*1188 FILLER_41_3
*1189 FILLER_41_39
*1190 FILLER_41_51
*1191 FILLER_41_55
*1192 FILLER_41_57
*1193 FILLER_41_69
*1194 FILLER_41_81
*1195 FILLER_41_93
*1196 FILLER_42_109
*1197 FILLER_42_121
*1198 FILLER_42_133
*1199 FILLER_42_139
*1200 FILLER_42_141
*1201 FILLER_42_153
*1202 FILLER_42_165
*1203 FILLER_42_177
*1204 FILLER_42_189
*1205 FILLER_42_195
*1206 FILLER_42_197
*1207 FILLER_42_20
*1208 FILLER_42_209
*1209 FILLER_42_221
*1210 FILLER_42_233
*1211 FILLER_42_245
*1212 FILLER_42_251
*1213 FILLER_42_253
*1214 FILLER_42_265
*1215 FILLER_42_277
*1216 FILLER_42_289
*1217 FILLER_42_29
*1218 FILLER_42_297
*1219 FILLER_42_3
*1220 FILLER_42_41
*1221 FILLER_42_53
*1222 FILLER_42_65
*1223 FILLER_42_77
*1224 FILLER_42_8
*1225 FILLER_42_83
*1226 FILLER_42_85
*1227 FILLER_42_97
*1228 FILLER_43_105
*1229 FILLER_43_111
*1230 FILLER_43_113
*1231 FILLER_43_125
*1232 FILLER_43_137
*1233 FILLER_43_149
*1234 FILLER_43_15
*1235 FILLER_43_161
*1236 FILLER_43_167
*1237 FILLER_43_169
*1238 FILLER_43_181
*1239 FILLER_43_193
*1240 FILLER_43_205
*1241 FILLER_43_217
*1242 FILLER_43_223
*1243 FILLER_43_225
*1244 FILLER_43_237
*1245 FILLER_43_249
*1246 FILLER_43_261
*1247 FILLER_43_27
*1248 FILLER_43_273
*1249 FILLER_43_279
*1250 FILLER_43_281
*1251 FILLER_43_293
*1252 FILLER_43_3
*1253 FILLER_43_39
*1254 FILLER_43_51
*1255 FILLER_43_55
*1256 FILLER_43_57
*1257 FILLER_43_69
*1258 FILLER_43_81
*1259 FILLER_43_93
*1260 FILLER_44_109
*1261 FILLER_44_121
*1262 FILLER_44_133
*1263 FILLER_44_139
*1264 FILLER_44_141
*1265 FILLER_44_15
*1266 FILLER_44_153
*1267 FILLER_44_165
*1268 FILLER_44_177
*1269 FILLER_44_189
*1270 FILLER_44_195
*1271 FILLER_44_197
*1272 FILLER_44_209
*1273 FILLER_44_221
*1274 FILLER_44_233
*1275 FILLER_44_245
*1276 FILLER_44_251
*1277 FILLER_44_253
*1278 FILLER_44_265
*1279 FILLER_44_27
*1280 FILLER_44_277
*1281 FILLER_44_289
*1282 FILLER_44_29
*1283 FILLER_44_297
*1284 FILLER_44_3
*1285 FILLER_44_41
*1286 FILLER_44_53
*1287 FILLER_44_65
*1288 FILLER_44_77
*1289 FILLER_44_83
*1290 FILLER_44_85
*1291 FILLER_44_97
*1292 FILLER_45_105
*1293 FILLER_45_111
*1294 FILLER_45_113
*1295 FILLER_45_125
*1296 FILLER_45_137
*1297 FILLER_45_149
*1298 FILLER_45_15
*1299 FILLER_45_161
*1300 FILLER_45_167
*1301 FILLER_45_169
*1302 FILLER_45_181
*1303 FILLER_45_193
*1304 FILLER_45_205
*1305 FILLER_45_217
*1306 FILLER_45_223
*1307 FILLER_45_225
*1308 FILLER_45_237
*1309 FILLER_45_249
*1310 FILLER_45_261
*1311 FILLER_45_27
*1312 FILLER_45_273
*1313 FILLER_45_279
*1314 FILLER_45_281
*1315 FILLER_45_293
*1316 FILLER_45_3
*1317 FILLER_45_39
*1318 FILLER_45_51
*1319 FILLER_45_55
*1320 FILLER_45_57
*1321 FILLER_45_69
*1322 FILLER_45_81
*1323 FILLER_45_93
*1324 FILLER_46_109
*1325 FILLER_46_121
*1326 FILLER_46_133
*1327 FILLER_46_139
*1328 FILLER_46_141
*1329 FILLER_46_153
*1330 FILLER_46_165
*1331 FILLER_46_177
*1332 FILLER_46_189
*1333 FILLER_46_195
*1334 FILLER_46_197
*1335 FILLER_46_20
*1336 FILLER_46_209
*1337 FILLER_46_221
*1338 FILLER_46_233
*1339 FILLER_46_245
*1340 FILLER_46_251
*1341 FILLER_46_253
*1342 FILLER_46_265
*1343 FILLER_46_277
*1344 FILLER_46_289
*1345 FILLER_46_29
*1346 FILLER_46_297
*1347 FILLER_46_3
*1348 FILLER_46_41
*1349 FILLER_46_53
*1350 FILLER_46_65
*1351 FILLER_46_77
*1352 FILLER_46_8
*1353 FILLER_46_83
*1354 FILLER_46_85
*1355 FILLER_46_97
*1356 FILLER_47_105
*1357 FILLER_47_111
*1358 FILLER_47_113
*1359 FILLER_47_125
*1360 FILLER_47_137
*1361 FILLER_47_149
*1362 FILLER_47_15
*1363 FILLER_47_161
*1364 FILLER_47_167
*1365 FILLER_47_169
*1366 FILLER_47_181
*1367 FILLER_47_193
*1368 FILLER_47_205
*1369 FILLER_47_217
*1370 FILLER_47_223
*1371 FILLER_47_225
*1372 FILLER_47_237
*1373 FILLER_47_249
*1374 FILLER_47_261
*1375 FILLER_47_27
*1376 FILLER_47_273
*1377 FILLER_47_279
*1378 FILLER_47_281
*1379 FILLER_47_293
*1380 FILLER_47_3
*1381 FILLER_47_39
*1382 FILLER_47_51
*1383 FILLER_47_55
*1384 FILLER_47_57
*1385 FILLER_47_69
*1386 FILLER_47_81
*1387 FILLER_47_93
*1388 FILLER_48_109
*1389 FILLER_48_121
*1390 FILLER_48_133
*1391 FILLER_48_139
*1392 FILLER_48_141
*1393 FILLER_48_15
*1394 FILLER_48_153
*1395 FILLER_48_165
*1396 FILLER_48_177
*1397 FILLER_48_189
*1398 FILLER_48_195
*1399 FILLER_48_197
*1400 FILLER_48_209
*1401 FILLER_48_221
*1402 FILLER_48_233
*1403 FILLER_48_245
*1404 FILLER_48_251
*1405 FILLER_48_253
*1406 FILLER_48_265
*1407 FILLER_48_27
*1408 FILLER_48_277
*1409 FILLER_48_289
*1410 FILLER_48_29
*1411 FILLER_48_297
*1412 FILLER_48_3
*1413 FILLER_48_41
*1414 FILLER_48_53
*1415 FILLER_48_65
*1416 FILLER_48_77
*1417 FILLER_48_83
*1418 FILLER_48_85
*1419 FILLER_48_97
*1420 FILLER_49_105
*1421 FILLER_49_111
*1422 FILLER_49_113
*1423 FILLER_49_125
*1424 FILLER_49_137
*1425 FILLER_49_149
*1426 FILLER_49_15
*1427 FILLER_49_161
*1428 FILLER_49_167
*1429 FILLER_49_169
*1430 FILLER_49_181
*1431 FILLER_49_193
*1432 FILLER_49_205
*1433 FILLER_49_217
*1434 FILLER_49_223
*1435 FILLER_49_225
*1436 FILLER_49_237
*1437 FILLER_49_249
*1438 FILLER_49_261
*1439 FILLER_49_27
*1440 FILLER_49_273
*1441 FILLER_49_279
*1442 FILLER_49_281
*1443 FILLER_49_293
*1444 FILLER_49_3
*1445 FILLER_49_39
*1446 FILLER_49_51
*1447 FILLER_49_55
*1448 FILLER_49_57
*1449 FILLER_49_69
*1450 FILLER_49_81
*1451 FILLER_49_93
*1452 FILLER_4_109
*1453 FILLER_4_121
*1454 FILLER_4_133
*1455 FILLER_4_139
*1456 FILLER_4_141
*1457 FILLER_4_153
*1458 FILLER_4_165
*1459 FILLER_4_177
*1460 FILLER_4_189
*1461 FILLER_4_195
*1462 FILLER_4_197
*1463 FILLER_4_209
*1464 FILLER_4_21
*1465 FILLER_4_221
*1466 FILLER_4_233
*1467 FILLER_4_245
*1468 FILLER_4_251
*1469 FILLER_4_253
*1470 FILLER_4_265
*1471 FILLER_4_27
*1472 FILLER_4_277
*1473 FILLER_4_289
*1474 FILLER_4_29
*1475 FILLER_4_297
*1476 FILLER_4_3
*1477 FILLER_4_51
*1478 FILLER_4_63
*1479 FILLER_4_75
*1480 FILLER_4_83
*1481 FILLER_4_85
*1482 FILLER_4_97
*1483 FILLER_50_109
*1484 FILLER_50_121
*1485 FILLER_50_133
*1486 FILLER_50_139
*1487 FILLER_50_141
*1488 FILLER_50_153
*1489 FILLER_50_165
*1490 FILLER_50_177
*1491 FILLER_50_189
*1492 FILLER_50_195
*1493 FILLER_50_197
*1494 FILLER_50_20
*1495 FILLER_50_209
*1496 FILLER_50_221
*1497 FILLER_50_233
*1498 FILLER_50_245
*1499 FILLER_50_251
*1500 FILLER_50_253
*1501 FILLER_50_265
*1502 FILLER_50_277
*1503 FILLER_50_289
*1504 FILLER_50_29
*1505 FILLER_50_297
*1506 FILLER_50_3
*1507 FILLER_50_41
*1508 FILLER_50_53
*1509 FILLER_50_65
*1510 FILLER_50_77
*1511 FILLER_50_8
*1512 FILLER_50_83
*1513 FILLER_50_85
*1514 FILLER_50_97
*1515 FILLER_51_105
*1516 FILLER_51_111
*1517 FILLER_51_113
*1518 FILLER_51_125
*1519 FILLER_51_137
*1520 FILLER_51_149
*1521 FILLER_51_15
*1522 FILLER_51_161
*1523 FILLER_51_167
*1524 FILLER_51_169
*1525 FILLER_51_181
*1526 FILLER_51_193
*1527 FILLER_51_205
*1528 FILLER_51_217
*1529 FILLER_51_223
*1530 FILLER_51_225
*1531 FILLER_51_237
*1532 FILLER_51_249
*1533 FILLER_51_261
*1534 FILLER_51_27
*1535 FILLER_51_273
*1536 FILLER_51_279
*1537 FILLER_51_281
*1538 FILLER_51_293
*1539 FILLER_51_3
*1540 FILLER_51_39
*1541 FILLER_51_51
*1542 FILLER_51_55
*1543 FILLER_51_57
*1544 FILLER_51_69
*1545 FILLER_51_81
*1546 FILLER_51_93
*1547 FILLER_52_109
*1548 FILLER_52_121
*1549 FILLER_52_133
*1550 FILLER_52_139
*1551 FILLER_52_141
*1552 FILLER_52_15
*1553 FILLER_52_153
*1554 FILLER_52_165
*1555 FILLER_52_177
*1556 FILLER_52_189
*1557 FILLER_52_195
*1558 FILLER_52_197
*1559 FILLER_52_209
*1560 FILLER_52_221
*1561 FILLER_52_233
*1562 FILLER_52_245
*1563 FILLER_52_251
*1564 FILLER_52_253
*1565 FILLER_52_265
*1566 FILLER_52_27
*1567 FILLER_52_277
*1568 FILLER_52_289
*1569 FILLER_52_29
*1570 FILLER_52_297
*1571 FILLER_52_3
*1572 FILLER_52_41
*1573 FILLER_52_53
*1574 FILLER_52_65
*1575 FILLER_52_77
*1576 FILLER_52_83
*1577 FILLER_52_85
*1578 FILLER_52_97
*1579 FILLER_53_105
*1580 FILLER_53_111
*1581 FILLER_53_113
*1582 FILLER_53_125
*1583 FILLER_53_137
*1584 FILLER_53_149
*1585 FILLER_53_15
*1586 FILLER_53_161